REMARK  3 active torsions:
REMARK  status: ('A' for Active; 'I' for Inactive)
REMARK    1  A    between atoms: C3_4  and  C4_5 
REMARK       I    between atoms: C4_5  and  N1_7 
REMARK    2  A    between atoms: N1_7  and  C5_8 
REMARK    3  A    between atoms: N2_13  and  C9_14 
ROOT
HETATM    1  C1  UNL     1       8.175  -0.951   0.077  1.00  0.00     0.058 C 
HETATM    2  C2  UNL     1       6.725  -0.639  -0.104  1.00  0.00     0.000 A 
HETATM    3  S1  UNL     1       5.523  -0.942   1.032  1.00  0.00    -0.088 SA
HETATM    4  C3  UNL     1       4.251  -0.298   0.133  1.00  0.00     0.074 A 
HETATM    5  C16 UNL     1       4.759   0.168  -1.079  1.00  0.00     0.048 A 
HETATM    6  C17 UNL     1       6.142  -0.019  -1.206  1.00  0.00     0.058 A 
HETATM    7  C18 UNL     1       6.877   0.394  -2.373  1.00  0.00     0.100 C 
HETATM    8  N7  UNL     1       7.469   0.726  -3.310  1.00  0.00    -0.191 NA
ENDROOT
BRANCH   4   9
HETATM    9  C4  UNL     1       2.846  -0.263   0.580  1.00  0.00     0.259 C 
HETATM   10  O1  UNL     1       2.534  -0.842   1.656  1.00  0.00    -0.267 OA
HETATM   11  N1  UNL     1       1.838   0.421  -0.184  1.00  0.00    -0.348 N 
HETATM   12  H4  UNL     1       2.134   1.061  -0.954  1.00  0.00     0.163 HD
BRANCH  11  13
HETATM   13  C5  UNL     1       0.429   0.442   0.218  1.00  0.00     0.126 C 
HETATM   14  C6  UNL     1       0.156   1.682   1.088  1.00  0.00     0.194 C 
HETATM   15  O2  UNL     1      -1.114   1.563   1.706  1.00  0.00    -0.387 OA
HETATM   16  C7  UNL     1      -2.093   2.360   1.061  1.00  0.00     0.187 C 
HETATM   17  C8  UNL     1      -2.337   1.964  -0.409  1.00  0.00     0.150 C 
HETATM   18  N2  UNL     1      -1.883   0.589  -0.669  1.00  0.00    -0.362 N 
HETATM   19  C15 UNL     1      -0.467   0.418  -1.034  1.00  0.00     0.151 C 
BRANCH  18  20
HETATM   20  C9  UNL     1      -2.742  -0.527  -0.321  1.00  0.00     0.128 A 
HETATM   21  C10 UNL     1      -2.232  -1.857  -0.176  1.00  0.00     0.053 A 
HETATM   22  C11 UNL     1      -3.094  -2.914   0.176  1.00  0.00     0.041 A 
HETATM   23  C12 UNL     1      -4.430  -2.601   0.366  1.00  0.00     0.122 A 
HETATM   24  N3  UNL     1      -5.460  -3.387   0.732  1.00  0.00    -0.156 NA
HETATM   25  C14 UNL     1      -4.881  -1.338   0.221  1.00  0.00     0.175 A 
HETATM   26  N4  UNL     1      -6.521  -2.580   0.802  1.00  0.00     0.006 NA
HETATM   27  N5  UNL     1      -6.192  -1.331   0.483  1.00  0.00    -0.260 N 
HETATM   28  C13 UNL     1      -7.088  -0.185   0.540  1.00  0.00     0.177 C 
HETATM   29  N6  UNL     1      -4.079  -0.298  -0.108  1.00  0.00    -0.210 NA
ENDBRANCH  18  20
ENDBRANCH  11  13
ENDBRANCH   4   9
TORSDOF 3
