REMARK  6 active torsions:
REMARK  status: ('A' for Active; 'I' for Inactive)
REMARK       I    between atoms: C1_2  and  N1_3 
REMARK    1  A    between atoms: C1_2  and  C23_27 
REMARK       I    between atoms: N1_3  and  C2_4 
REMARK    2  A    between atoms: C2_4  and  C3_6 
REMARK    3  A    between atoms: C25_29  and  C46_50 
REMARK    4  A    between atoms: C26_30  and  C29_33 
REMARK    5  A    between atoms: C34_38  and  C35_39 
REMARK    6  A    between atoms: C40_44  and  C41_45 
ROOT
HETATM    1  O1  UNL     1      -0.781  -1.823  -1.290  1.00  0.00    -0.267 OA
HETATM    2  C1  UNL     1      -0.756  -1.106  -0.252  1.00  0.00     0.258 C 
HETATM    3  N1  UNL     1       0.477  -0.880   0.454  1.00  0.00    -0.289 N 
HETATM    4  C2  UNL     1       1.702  -1.528   0.088  1.00  0.00     0.258 C 
HETATM    5  O2  UNL     1       1.669  -2.723  -0.319  1.00  0.00    -0.267 OA
HETATM    6  H1  UNL     1       0.481  -0.153   1.205  1.00  0.00     0.172 HD
ENDROOT
BRANCH   2   7
HETATM    7  C23 UNL     1      -1.975  -0.399   0.162  1.00  0.00     0.033 A 
HETATM    8  C24 UNL     1      -3.172  -1.105   0.336  1.00  0.00     0.030 A 
HETATM    9  C25 UNL     1      -4.353  -0.429   0.676  1.00  0.00    -0.013 A 
HETATM   10  C26 UNL     1      -4.350   0.981   0.782  1.00  0.00    -0.014 A 
HETATM   11  C27 UNL     1      -3.141   1.676   0.631  1.00  0.00     0.014 A 
HETATM   12  C28 UNL     1      -1.961   0.986   0.336  1.00  0.00     0.018 A 
BRANCH   9  13
HETATM   13  C46 UNL     1      -5.565  -1.221   0.968  1.00  0.00    -0.014 A 
HETATM   14  C41 UNL     1      -6.670  -1.223   0.094  1.00  0.00    -0.014 A 
HETATM   15  C42 UNL     1      -7.775  -2.051   0.374  1.00  0.00     0.013 A 
HETATM   16  C43 UNL     1      -7.772  -2.880   1.503  1.00  0.00     0.001 A 
HETATM   17  C44 UNL     1      -6.680  -2.873   2.370  1.00  0.00     0.001 A 
HETATM   18  C45 UNL     1      -5.582  -2.045   2.110  1.00  0.00     0.013 A 
BRANCH  14  19
HETATM   19  C40 UNL     1      -6.651  -0.424  -1.154  1.00  0.00    -0.014 A 
HETATM   20  C35 UNL     1      -6.634   0.990  -1.128  1.00  0.00    -0.014 A 
HETATM   21  C36 UNL     1      -6.650   1.696  -2.340  1.00  0.00     0.013 A 
HETATM   22  C37 UNL     1      -6.649   1.012  -3.562  1.00  0.00     0.001 A 
HETATM   23  C38 UNL     1      -6.655  -0.382  -3.589  1.00  0.00     0.001 A 
HETATM   24  C39 UNL     1      -6.658  -1.096  -2.387  1.00  0.00     0.013 A 
BRANCH  20  25
HETATM   25  C34 UNL     1      -6.671   1.751   0.144  1.00  0.00    -0.014 A 
HETATM   26  C29 UNL     1      -5.588   1.750   1.052  1.00  0.00    -0.014 A 
HETATM   27  C30 UNL     1      -5.648   2.562   2.198  1.00  0.00     0.013 A 
HETATM   28  C31 UNL     1      -6.759   3.370   2.433  1.00  0.00     0.001 A 
HETATM   29  C32 UNL     1      -7.827   3.374   1.535  1.00  0.00     0.001 A 
HETATM   30  C33 UNL     1      -7.786   2.560   0.402  1.00  0.00     0.013 A 
ENDBRANCH  20  25
ENDBRANCH  14  19
ENDBRANCH   9  13
ENDBRANCH   2   7
BRANCH   4  31
HETATM   31  C3  UNL     1       3.001  -0.815   0.175  1.00  0.00     0.033 A 
HETATM   32  C4  UNL     1       4.208  -1.512  -0.023  1.00  0.00     0.030 A 
HETATM   33  C5  UNL     1       5.441  -0.838  -0.040  1.00  0.00    -0.013 A 
HETATM   34  C6  UNL     1       5.470   0.562   0.150  1.00  0.00    -0.014 A 
HETATM   35  C22 UNL     1       6.670  -1.609  -0.328  1.00  0.00    -0.015 A 
HETATM   36  C7  UNL     1       4.274   1.250   0.383  1.00  0.00     0.014 A 
HETATM   37  C9  UNL     1       6.722   1.342   0.039  1.00  0.00    -0.012 A 
HETATM   38  C8  UNL     1       3.051   0.575   0.380  1.00  0.00     0.018 A 
HETATM   39  C10 UNL     1       6.836   2.303  -0.985  1.00  0.00     0.013 A 
HETATM   40  C14 UNL     1       7.767   1.203   0.979  1.00  0.00     0.014 A 
HETATM   41  C11 UNL     1       7.976   3.103  -1.073  1.00  0.00     0.004 A 
HETATM   42  C12 UNL     1       8.994   2.980  -0.131  1.00  0.00     0.043 A 
HETATM   43  C13 UNL     1       8.893   2.034   0.891  1.00  0.00     0.127 A 
HETATM   44  F1  UNL     1       9.891   1.934   1.801  1.00  0.00    -0.205 F 
HETATM   45  C15 UNL     1       7.670   0.256   2.111  1.00  0.00     0.016 C 
HETATM   46  C16 UNL     1       7.643  -1.071   1.949  1.00  0.00     0.013 C 
HETATM   47  C17 UNL     1       7.707  -1.733   0.627  1.00  0.00    -0.025 A 
HETATM   48  C18 UNL     1       8.800  -2.559   0.345  1.00  0.00     0.012 A 
HETATM   49  C19 UNL     1       8.896  -3.218  -0.883  1.00  0.00     0.001 A 
HETATM   50  C20 UNL     1       7.888  -3.072  -1.838  1.00  0.00     0.001 A 
HETATM   51  C21 UNL     1       6.774  -2.282  -1.556  1.00  0.00     0.013 A 
ENDBRANCH   4  31
TORSDOF 6
