REMARK  3 active torsions:
REMARK  status: ('A' for Active; 'I' for Inactive)
REMARK    1  A    between atoms: C7_7  and  C8_8 
REMARK       I    between atoms: C8_8  and  N1_10 
REMARK       I    between atoms: N2_15  and  C13_16 
REMARK    2  A    between atoms: C13_16  and  C14_18 
REMARK    3  A    between atoms: C22_27  and  O4_28 
ROOT
HETATM    1  C8  UNL     1       2.253   1.018  -0.957  1.00  0.00     0.256 C 
HETATM    2  O1  UNL     1       2.199   1.514  -2.115  1.00  0.00    -0.267 OA
HETATM    3  N1  UNL     1       1.177   1.255  -0.016  1.00  0.00    -0.346 N 
HETATM    4  C9  UNL     1       1.101   0.546   1.271  1.00  0.00     0.132 C 
HETATM    5  C10 UNL     1      -0.108  -0.401   1.335  1.00  0.00     0.018 C 
HETATM    6  C11 UNL     1       0.017  -1.582   0.361  1.00  0.00     0.013 C 
HETATM    7  C12 UNL     1      -1.455   0.340   1.205  1.00  0.00     0.132 C 
HETATM    8  N2  UNL     1      -1.806   0.689  -0.185  1.00  0.00    -0.344 N 
HETATM    9  C13 UNL     1      -3.082   0.235  -0.677  1.00  0.00     0.250 C 
HETATM   10  O2  UNL     1      -3.121  -0.614  -1.608  1.00  0.00    -0.270 OA
HETATM   11  C19 UNL     1      -1.101   1.730  -0.971  1.00  0.00     0.101 C 
HETATM   12  C20 UNL     1      -0.802   1.248  -2.400  1.00  0.00     0.034 C 
HETATM   13  C21 UNL     1       0.166   2.292  -0.285  1.00  0.00     0.151 C 
ENDROOT
BRANCH   1  14
HETATM   14  C7  UNL     1       3.456   0.240  -0.599  1.00  0.00     0.066 A 
HETATM   15  C6  UNL     1       4.324   0.753   0.377  1.00  0.00     0.026 A 
HETATM   16  C4  UNL     1       5.504   0.078   0.711  1.00  0.00    -0.060 A 
HETATM   17  C3  UNL     1       5.823  -1.118   0.053  1.00  0.00     0.016 A 
HETATM   18  C5  UNL     1       6.436   0.671   1.724  1.00  0.00     0.048 C 
HETATM   19  C2  UNL     1       4.961  -1.655  -0.916  1.00  0.00    -0.027 A 
HETATM   20  C1  UNL     1       5.359  -2.915  -1.638  1.00  0.00     0.051 C 
HETATM   21  C22 UNL     1       3.779  -0.969  -1.258  1.00  0.00     0.087 A 
BRANCH  21  22
HETATM   22  O4  UNL     1       2.937  -1.505  -2.238  1.00  0.00    -0.359 OA
HETATM   23  H32 UNL     1       2.056  -1.079  -2.502  1.00  0.00     0.217 HD
ENDBRANCH  21  22
ENDBRANCH   1  14
BRANCH   9  24
HETATM   24  C14 UNL     1      -4.372   0.850  -0.184  1.00  0.00     0.223 A 
HETATM   25  O3  UNL     1      -4.211   1.484   1.066  1.00  0.00    -0.375 OA
HETATM   26  C15 UNL     1      -5.170   0.639   1.663  1.00  0.00     0.180 A 
HETATM   27  C16 UNL     1      -5.433  -0.110   0.366  1.00  0.00     0.009 A 
HETATM   28  C17 UNL     1      -5.078  -1.608   0.443  1.00  0.00     0.020 C 
HETATM   29  C18 UNL     1      -6.840   0.139  -0.205  1.00  0.00     0.020 C 
ENDBRANCH   9  24
TORSDOF 3
