REMARK  2 active torsions:
REMARK  status: ('A' for Active; 'I' for Inactive)
REMARK    1  A    between atoms: C1_2  and  O2_3 
REMARK    2  A    between atoms: C1_2  and  C2_4 
ROOT
HETATM    1  C2  UNL     1      -4.369   0.806  -0.885  1.00  0.00     0.076 A 
HETATM    2  C3  UNL     1      -4.334  -0.547  -1.253  1.00  0.00     0.022 A 
HETATM    3  C4  UNL     1      -3.284  -1.366  -0.847  1.00  0.00     0.014 A 
HETATM    4  C5  UNL     1      -2.212  -0.850  -0.104  1.00  0.00    -0.015 A 
HETATM    5  C6  UNL     1      -2.173   0.537   0.180  1.00  0.00    -0.001 A 
HETATM    6  C7  UNL     1      -3.285   1.341  -0.159  1.00  0.00     0.140 A 
HETATM    7  F1  UNL     1      -3.299   2.647   0.214  1.00  0.00    -0.204 F 
HETATM    8  C8  UNL     1      -0.894   1.209   0.642  1.00  0.00     0.127 C 
HETATM    9  C9  UNL     1      -0.189   1.857  -0.579  1.00  0.00     0.275 C 
HETATM   10  F2  UNL     1      -1.034   2.861  -1.028  1.00  0.00    -0.200 F 
HETATM   11  F3  UNL     1      -0.096   0.943  -1.608  1.00  0.00    -0.200 F 
HETATM   12  C10 UNL     1       1.205   2.458  -0.361  1.00  0.00     0.024 A 
HETATM   13  C11 UNL     1       1.516   3.616  -1.120  1.00  0.00     0.014 A 
HETATM   14  C12 UNL     1       2.787   4.184  -1.107  1.00  0.00     0.001 A 
HETATM   15  C13 UNL     1       3.801   3.602  -0.363  1.00  0.00     0.001 A 
HETATM   16  C14 UNL     1       3.546   2.450   0.371  1.00  0.00     0.013 A 
HETATM   17  C15 UNL     1       2.269   1.853   0.382  1.00  0.00    -0.013 A 
HETATM   18  C16 UNL     1       2.153   0.662   1.257  1.00  0.00    -0.014 C 
HETATM   19  C17 UNL     1       2.299   0.874   2.641  1.00  0.00     0.013 C 
HETATM   20  C18 UNL     1       2.513  -0.195   3.509  1.00  0.00     0.001 C 
HETATM   21  C19 UNL     1       2.637  -1.485   3.004  1.00  0.00     0.001 C 
HETATM   22  C20 UNL     1       2.478  -1.717   1.638  1.00  0.00     0.013 C 
HETATM   23  C21 UNL     1       2.151  -0.669   0.758  1.00  0.00    -0.014 C 
HETATM   24  C22 UNL     1       1.778  -0.996  -0.646  1.00  0.00    -0.014 A 
HETATM   25  C23 UNL     1       2.573  -0.513  -1.698  1.00  0.00     0.013 A 
HETATM   26  C24 UNL     1       2.220  -0.762  -3.027  1.00  0.00     0.001 A 
HETATM   27  C25 UNL     1       1.074  -1.501  -3.323  1.00  0.00     0.001 A 
HETATM   28  C26 UNL     1       0.278  -2.005  -2.292  1.00  0.00     0.013 A 
HETATM   29  C27 UNL     1       0.614  -1.765  -0.952  1.00  0.00    -0.014 A 
HETATM   30  C28 UNL     1      -0.197  -2.410   0.107  1.00  0.00    -0.014 A 
HETATM   31  C29 UNL     1       0.262  -3.631   0.631  1.00  0.00     0.013 A 
HETATM   32  C30 UNL     1      -0.347  -4.202   1.748  1.00  0.00     0.001 A 
HETATM   33  C31 UNL     1      -1.446  -3.581   2.335  1.00  0.00     0.001 A 
HETATM   34  C32 UNL     1      -1.976  -2.422   1.767  1.00  0.00     0.013 A 
HETATM   35  C33 UNL     1      -1.387  -1.842   0.628  1.00  0.00    -0.014 A 
ENDROOT
BRANCH   1  36
HETATM   36  C1  UNL     1      -5.529   1.646  -1.275  1.00  0.00     0.179 C 
HETATM   37  O1  UNL     1      -6.489   1.144  -1.920  1.00  0.00    -0.646 OA
BRANCH  36  38
HETATM   38  O2  UNL     1      -5.576   2.997  -0.940  1.00  0.00    -0.773 OA
HETATM   39  H1  UNL     1      -6.366   3.572  -1.205  1.00  0.00     0.167 HD
ENDBRANCH  36  38
ENDBRANCH   1  36
TORSDOF 2
