REMARK  1 active torsions:
REMARK  status: ('A' for Active; 'I' for Inactive)
REMARK    1  A    between atoms: C5_5  and  C6_6 
REMARK       I    between atoms: C6_6  and  N1_8 
ROOT
HETATM    1  C6  UNL     1       0.981  -1.914  -0.239  1.00  0.00     0.261 C 
HETATM    2  O1  UNL     1       1.457  -3.065  -0.442  1.00  0.00    -0.267 OA
HETATM    3  N1  UNL     1      -0.422  -1.665  -0.473  1.00  0.00    -0.311 N 
HETATM    4  C7  UNL     1      -1.346  -2.806  -0.521  1.00  0.00     0.134 C 
HETATM    5  C8  UNL     1      -2.793  -2.405  -0.212  1.00  0.00     0.040 C 
HETATM    6  C9  UNL     1      -2.879  -1.522   1.039  1.00  0.00     0.124 C 
HETATM    7  N2  UNL     1      -2.537  -0.110   0.787  1.00  0.00    -0.383 N 
HETATM    8  C10 UNL     1      -2.811   0.852   1.860  1.00  0.00     0.149 C 
HETATM    9  C11 UNL     1      -1.873   0.352  -0.417  1.00  0.00     0.058 A 
HETATM   10  C12 UNL     1      -2.234   1.590  -0.982  1.00  0.00     0.055 A 
HETATM   11  C13 UNL     1      -1.581   2.076  -2.118  1.00  0.00     0.036 A 
HETATM   12 CL1  UNL     1      -2.048   3.621  -2.805  1.00  0.00    -0.084 Cl
HETATM   13  C14 UNL     1      -0.558   1.333  -2.707  1.00  0.00     0.026 A 
HETATM   14  C15 UNL     1      -0.188   0.103  -2.163  1.00  0.00     0.034 A 
HETATM   15  C16 UNL     1      -0.835  -0.398  -1.020  1.00  0.00     0.064 A 
ENDROOT
BRANCH   1  16
HETATM   16  C5  UNL     1       1.887  -0.833   0.208  1.00  0.00     0.072 A 
HETATM   17  C4  UNL     1       3.158  -0.707  -0.371  1.00  0.00     0.021 A 
HETATM   18  C3  UNL     1       4.011   0.328   0.016  1.00  0.00     0.009 A 
HETATM   19  C2  UNL     1       3.613   1.251   0.995  1.00  0.00    -0.042 A 
HETATM   20  C1  UNL     1       4.543   2.363   1.396  1.00  0.00     0.049 C 
HETATM   21  C18 UNL     1       2.346   1.115   1.598  1.00  0.00     0.056 A 
HETATM   22  C17 UNL     1       1.494   0.071   1.209  1.00  0.00     0.149 A 
HETATM   23 BR1  UNL     1       1.750   2.330   2.960  1.00  0.00    -0.047 Br
HETATM   24  F1  UNL     1       0.303  -0.086   1.839  1.00  0.00    -0.204 F 
ENDBRANCH   1  16
TORSDOF 1
