REMARK  4 active torsions:
REMARK  status: ('A' for Active; 'I' for Inactive)
REMARK    1  A    between atoms: C4_6  and  C5_7 
REMARK       I    between atoms: C5_7  and  N2_9 
REMARK    2  A    between atoms: N2_9  and  C6_10 
REMARK    3  A    between atoms: N3_12  and  C8_13 
REMARK    4  A    between atoms: C12_19  and  O3_20 
ROOT
HETATM    1  C6  UNL     1      -0.613   0.858   0.010  1.00  0.00     0.136 C 
HETATM    2  C7  UNL     1       0.480   0.349  -0.946  1.00  0.00     0.154 C 
HETATM    3  N3  UNL     1       1.743   0.119  -0.235  1.00  0.00    -0.361 N 
HETATM    4  C13 UNL     1       2.299   1.153   0.644  1.00  0.00     0.129 C 
HETATM    5  C14 UNL     1       2.059   2.553   0.074  1.00  0.00     0.059 C 
HETATM    6  C15 UNL     1       0.685   3.111   0.393  1.00  0.00    -0.048 A 
HETATM    7  C16 UNL     1       0.626   4.484   0.711  1.00  0.00     0.008 A 
HETATM    8  C17 UNL     1      -0.578   5.096   1.044  1.00  0.00     0.001 A 
HETATM    9  C18 UNL     1      -1.749   4.351   1.076  1.00  0.00     0.001 A 
HETATM   10  C19 UNL     1      -1.726   2.998   0.745  1.00  0.00     0.010 A 
HETATM   11  C20 UNL     1      -0.532   2.356   0.340  1.00  0.00    -0.028 A 
ENDROOT
BRANCH   1  12
HETATM   12  N2  UNL     1      -1.913   0.538  -0.595  1.00  0.00    -0.346 N 
HETATM   13  C5  UNL     1      -2.645  -0.656  -0.275  1.00  0.00     0.256 C 
HETATM   14  O2  UNL     1      -2.147  -1.506   0.512  1.00  0.00    -0.268 OA
HETATM   15  H5  UNL     1      -2.235   1.132  -1.392  1.00  0.00     0.163 HD
BRANCH  13  16
HETATM   16  C4  UNL     1      -3.980  -0.902  -0.861  1.00  0.00     0.082 A 
HETATM   17  C2  UNL     1      -4.786  -2.021  -0.731  1.00  0.00     0.075 A 
HETATM   18  C1  UNL     1      -4.484  -3.269   0.035  1.00  0.00     0.074 C 
HETATM   19  N1  UNL     1      -5.931  -1.826  -1.411  1.00  0.00    -0.133 NA
HETATM   20  O1  UNL     1      -5.859  -0.641  -1.946  1.00  0.00    -0.224 OA
HETATM   21  C3  UNL     1      -4.725  -0.047  -1.652  1.00  0.00     0.189 A 
ENDBRANCH  13  16
ENDBRANCH   1  12
BRANCH   3  22
HETATM   22  C8  UNL     1       2.502  -1.072  -0.520  1.00  0.00     0.162 A 
HETATM   23  N4  UNL     1       2.637  -1.483  -1.810  1.00  0.00    -0.222 NA
HETATM   24  C9  UNL     1       3.346  -2.594  -2.128  1.00  0.00     0.235 A 
HETATM   25  N5  UNL     1       3.936  -3.326  -1.152  1.00  0.00    -0.244 NA
HETATM   26  C10 UNL     1       3.830  -2.976   0.157  1.00  0.00     0.069 A 
HETATM   27  C11 UNL     1       4.498  -3.831   1.190  1.00  0.00     0.074 C 
HETATM   28  C12 UNL     1       3.091  -1.828   0.510  1.00  0.00     0.136 A 
BRANCH  28  29
HETATM   29  O3  UNL     1       2.921  -1.442   1.843  1.00  0.00    -0.355 OA
HETATM   30  H13 UNL     1       3.326  -1.950   2.619  1.00  0.00     0.218 HD
ENDBRANCH  28  29
ENDBRANCH   3  22
TORSDOF 4
