REMARK  2 active torsions:
REMARK  status: ('A' for Active; 'I' for Inactive)
REMARK    1  A    between atoms: C4_5  and  S1_6 
REMARK    2  A    between atoms: S1_6  and  N2_9 
ROOT
HETATM    1  N2  UNL     1      -0.792  -0.825  -1.053  1.00  0.00    -0.198 NA
HETATM    2  C5  UNL     1      -1.007  -0.550   0.394  1.00  0.00     0.149 C 
HETATM    3  C6  UNL     1      -2.145   0.409   0.702  1.00  0.00    -0.010 A 
HETATM    4  C7  UNL     1      -1.858   1.785   0.758  1.00  0.00     0.011 A 
HETATM    5  C8  UNL     1      -2.839   2.708   1.120  1.00  0.00     0.001 A 
HETATM    6  C9  UNL     1      -4.116   2.271   1.463  1.00  0.00     0.003 A 
HETATM    7  C10 UNL     1      -4.416   0.909   1.442  1.00  0.00     0.038 A 
HETATM    8  C11 UNL     1      -3.454  -0.034   1.055  1.00  0.00     0.083 A 
HETATM    9  O3  UNL     1      -3.843  -1.382   1.076  1.00  0.00    -0.309 OA
HETATM   10  C12 UNL     1      -3.534  -2.291   0.067  1.00  0.00     0.089 A 
HETATM   11  C13 UNL     1      -3.794  -3.569  -0.165  1.00  0.00     0.081 A 
HETATM   12  C14 UNL     1      -3.033  -3.497  -1.407  1.00  0.00     0.129 A 
HETATM   13  F1  UNL     1      -2.697  -4.379  -2.379  1.00  0.00    -0.205 F 
HETATM   14  C15 UNL     1      -2.789  -2.216  -1.178  1.00  0.00     0.029 A 
HETATM   15  C16 UNL     1      -2.013  -1.122  -1.823  1.00  0.00     0.152 C 
ENDROOT
BRANCH   1  16
HETATM   16  S1  UNL     1       0.121   0.433  -1.857  1.00  0.00     0.246 S 
HETATM   17  O1  UNL     1      -0.744   1.651  -2.026  1.00  0.00    -0.206 OA
HETATM   18  O2  UNL     1       0.531  -0.042  -3.223  1.00  0.00    -0.206 OA
BRANCH  16  19
HETATM   19  C4  UNL     1       1.591   0.843  -0.949  1.00  0.00     0.098 A 
HETATM   20  C3  UNL     1       1.854   2.190  -0.685  1.00  0.00     0.142 A 
HETATM   21  N1  UNL     1       2.945   2.552   0.029  1.00  0.00    -0.264 NA
HETATM   22  C2  UNL     1       3.818   1.647   0.538  1.00  0.00     0.036 A 
HETATM   23  C1  UNL     1       4.992   2.168   1.317  1.00  0.00     0.071 C 
HETATM   24  C19 UNL     1       3.592   0.263   0.340  1.00  0.00    -0.030 A 
HETATM   25  C17 UNL     1       2.499  -0.140  -0.477  1.00  0.00    -0.030 A 
HETATM   26  C20 UNL     1       4.528  -0.764   0.942  1.00  0.00     0.051 C 
HETATM   27  C18 UNL     1       2.277  -1.607  -0.782  1.00  0.00     0.050 C 
ENDBRANCH  16  19
ENDBRANCH   1  16
TORSDOF 2
