REMARK  1 active torsions:
REMARK  status: ('A' for Active; 'I' for Inactive)
REMARK    1  A    between atoms: C7_7  and  C8_8 
ROOT
HETATM    1  C8  UNL     1       2.063   1.210   0.191  1.00  0.00    -0.009 A 
HETATM    2  C9  UNL     1       2.264   2.009   1.325  1.00  0.00     0.013 A 
HETATM    3  C10 UNL     1       1.190   2.653   1.934  1.00  0.00     0.002 A 
HETATM    4  C11 UNL     1      -0.095   2.514   1.416  1.00  0.00     0.010 A 
HETATM    5  C12 UNL     1      -0.328   1.725   0.278  1.00  0.00    -0.018 A 
HETATM    6  C13 UNL     1       0.758   1.054  -0.339  1.00  0.00     0.051 A 
HETATM    7  C14 UNL     1       0.518   0.169  -1.502  1.00  0.00     0.260 C 
HETATM    8  O1  UNL     1       1.090   0.410  -2.599  1.00  0.00    -0.267 OA
HETATM    9  N1  UNL     1      -0.396  -0.929  -1.411  1.00  0.00    -0.289 N 
HETATM   10  C15 UNL     1      -0.622  -1.590  -0.167  1.00  0.00     0.258 C 
HETATM   11  O2  UNL     1       0.190  -2.482   0.199  1.00  0.00    -0.267 OA
HETATM   12  C16 UNL     1      -1.803  -1.282   0.673  1.00  0.00     0.053 C 
HETATM   13  C17 UNL     1      -2.053  -1.924   1.813  1.00  0.00     0.017 C 
HETATM   14  C18 UNL     1      -3.378  -1.580   2.289  1.00  0.00     0.012 C 
HETATM   15  C19 UNL     1      -3.905  -0.731   1.427  1.00  0.00    -0.015 C 
HETATM   16  C20 UNL     1      -5.337  -0.436   1.304  1.00  0.00     0.011 C 
HETATM   17  C21 UNL     1      -5.824  -0.212   0.078  1.00  0.00     0.001 C 
HETATM   18  C22 UNL     1      -4.946  -0.330  -1.113  1.00  0.00    -0.000 C 
HETATM   19  C23 UNL     1      -3.616  -0.483  -0.986  1.00  0.00     0.021 C 
HETATM   20  C24 UNL     1      -2.931  -0.313   0.367  1.00  0.00     0.139 C 
HETATM   21  O3  UNL     1      -2.597   1.039   0.666  1.00  0.00    -0.362 OA
HETATM   22  C25 UNL     1      -1.735   1.659  -0.269  1.00  0.00     0.210 C 
HETATM   23  H11 UNL     1      -0.632  -1.450  -2.285  1.00  0.00     0.172 HD
ENDROOT
BRANCH   1  24
HETATM   24  C7  UNL     1       3.228   0.502  -0.384  1.00  0.00    -0.019 A 
HETATM   25  C2  UNL     1       3.755  -0.666   0.219  1.00  0.00    -0.051 A 
HETATM   26  C1  UNL     1       3.181  -1.223   1.495  1.00  0.00     0.049 C 
HETATM   27  C3  UNL     1       4.885  -1.280  -0.346  1.00  0.00     0.007 A 
HETATM   28  C4  UNL     1       5.473  -0.759  -1.501  1.00  0.00     0.001 A 
HETATM   29  C5  UNL     1       4.951   0.391  -2.094  1.00  0.00     0.001 A 
HETATM   30  C6  UNL     1       3.839   1.023  -1.535  1.00  0.00     0.013 A 
ENDBRANCH   1  24
TORSDOF 1
