REMARK  5 active torsions:
REMARK  status: ('A' for Active; 'I' for Inactive)
REMARK    1  A    between atoms: C6_7  and  O2_8 
REMARK    2  A    between atoms: C10_14  and  C11_15 
REMARK    3  A    between atoms: C11_15  and  C12_16 
REMARK    4  A    between atoms: C16_20  and  C17_21 
REMARK    5  A    between atoms: C20_24  and  O3_25 
ROOT
HETATM    1  C1  UNL     1       0.105   1.716   1.198  1.00  0.00     0.044 C 
HETATM    2  C2  UNL     1       1.346   1.176   0.528  1.00  0.00    -0.074 C 
HETATM    3  C3  UNL     1       2.265   2.071   0.125  1.00  0.00     0.060 C 
HETATM    4  C4  UNL     1       3.589   1.748  -0.443  1.00  0.00     0.203 C 
HETATM    5  O1  UNL     1       4.086   2.575  -1.253  1.00  0.00    -0.286 OA
HETATM    6  C5  UNL     1       4.407   0.575  -0.037  1.00  0.00     0.139 A 
HETATM    7  C6  UNL     1       5.748   0.405  -0.321  1.00  0.00     0.195 A 
HETATM    8  N1  UNL     1       6.211  -0.731   0.230  1.00  0.00    -0.209 NA
HETATM    9  C7  UNL     1       5.130  -1.246   0.853  1.00  0.00     0.105 A 
HETATM   10  C8  UNL     1       5.185  -2.536   1.610  1.00  0.00     0.091 C 
HETATM   11  N2  UNL     1       4.013  -0.491   0.698  1.00  0.00    -0.328 N 
HETATM   12  C9  UNL     1       2.685  -0.793   1.248  1.00  0.00     0.140 C 
HETATM   13  C10 UNL     1       1.570  -0.315   0.303  1.00  0.00     0.037 C 
ENDROOT
BRANCH  13  14
HETATM   14  C11 UNL     1       0.309  -1.210   0.441  1.00  0.00     0.049 C 
BRANCH  14  15
HETATM   15  C12 UNL     1      -0.787  -0.849  -0.537  1.00  0.00    -0.057 A 
HETATM   16  C13 UNL     1      -0.574  -0.971  -1.919  1.00  0.00     0.007 A 
HETATM   17  C14 UNL     1      -1.587  -0.643  -2.821  1.00  0.00     0.001 A 
HETATM   18  C15 UNL     1      -2.826  -0.199  -2.355  1.00  0.00     0.012 A 
HETATM   19  C16 UNL     1      -3.069  -0.087  -0.975  1.00  0.00    -0.024 A 
HETATM   20  C22 UNL     1      -2.045  -0.429  -0.072  1.00  0.00     0.019 A 
BRANCH  19  21
HETATM   21  C17 UNL     1      -4.385   0.388  -0.476  1.00  0.00    -0.008 A 
HETATM   22  C18 UNL     1      -5.580  -0.028  -1.086  1.00  0.00     0.018 A 
HETATM   23  C19 UNL     1      -6.809   0.428  -0.605  1.00  0.00     0.059 A 
HETATM   24  C20 UNL     1      -6.839   1.302   0.486  1.00  0.00     0.161 A 
HETATM   25  N3  UNL     1      -5.675   1.698   1.066  1.00  0.00    -0.236 NA
HETATM   26  C21 UNL     1      -4.466   1.267   0.618  1.00  0.00     0.131 A 
BRANCH  24  27
HETATM   27  O3  UNL     1      -8.049   1.773   0.988  1.00  0.00    -0.345 OA
HETATM   28  H19 UNL     1      -8.935   1.497   0.579  1.00  0.00     0.219 HD
ENDBRANCH  24  27
ENDBRANCH  19  21
ENDBRANCH  14  15
ENDBRANCH  13  14
BRANCH   7  29
HETATM   29  O2  UNL     1       6.539   1.278  -1.061  1.00  0.00    -0.343 OA
HETATM   30  H5  UNL     1       7.519   1.078  -1.218  1.00  0.00     0.219 HD
ENDBRANCH   7  29
TORSDOF 5
