REMARK  2 active torsions:
REMARK  status: ('A' for Active; 'I' for Inactive)
REMARK    1  A    between atoms: C8_9  and  C9_10 
REMARK    2  A    between atoms: C24_25  and  O1_26 
ROOT
HETATM    1  C1  UNL     1      -1.384   4.143   0.243  1.00  0.00     0.048 C 
HETATM    2  C2  UNL     1      -1.749   2.690   0.166  1.00  0.00    -0.061 A 
HETATM    3  C3  UNL     1      -2.800   2.266  -0.659  1.00  0.00     0.007 A 
HETATM    4  C4  UNL     1      -3.154   0.916  -0.713  1.00  0.00     0.014 A 
HETATM    5  C5  UNL     1      -2.473  -0.030   0.071  1.00  0.00    -0.006 A 
HETATM    6  C6  UNL     1      -1.430   0.400   0.918  1.00  0.00     0.013 A 
HETATM    7  C7  UNL     1      -1.082   1.755   0.969  1.00  0.00     0.026 A 
HETATM    8  S1  UNL     1      -0.586  -0.760   2.009  1.00  0.00    -0.119 SA
HETATM    9  C8  UNL     1       0.407  -1.653   0.738  1.00  0.00     0.089 C 
HETATM   10  C19 UNL     1      -0.324  -1.917  -0.599  1.00  0.00     0.059 C 
HETATM   11  C20 UNL     1      -1.744  -2.394  -0.383  1.00  0.00    -0.043 A 
HETATM   12  C21 UNL     1      -2.037  -3.764  -0.474  1.00  0.00     0.008 A 
HETATM   13  C22 UNL     1      -3.342  -4.220  -0.291  1.00  0.00     0.003 A 
HETATM   14  C23 UNL     1      -4.367  -3.319  -0.004  1.00  0.00     0.037 A 
HETATM   15  C24 UNL     1      -4.094  -1.949   0.112  1.00  0.00     0.077 A 
HETATM   16  C25 UNL     1      -2.780  -1.476  -0.076  1.00  0.00     0.015 A 
ENDROOT
BRANCH   9  17
HETATM   17  C9  UNL     1       1.747  -0.972   0.539  1.00  0.00    -0.043 A 
HETATM   18  C10 UNL     1       2.911  -1.555   1.070  1.00  0.00     0.009 A 
HETATM   19  C11 UNL     1       4.152  -0.928   0.930  1.00  0.00     0.013 A 
HETATM   20  C12 UNL     1       4.252   0.300   0.263  1.00  0.00    -0.026 A 
HETATM   21  C13 UNL     1       5.493   0.940   0.122  1.00  0.00     0.012 A 
HETATM   22  C17 UNL     1       3.088   0.902  -0.270  1.00  0.00    -0.025 A 
HETATM   23  C14 UNL     1       5.577   2.168  -0.541  1.00  0.00     0.001 A 
HETATM   24  C15 UNL     1       4.428   2.764  -1.066  1.00  0.00     0.001 A 
HETATM   25  C16 UNL     1       3.186   2.136  -0.932  1.00  0.00     0.012 A 
HETATM   26  C18 UNL     1       1.848   0.264  -0.129  1.00  0.00     0.020 A 
ENDBRANCH   9  17
BRANCH  15  27
HETATM   27  O1  UNL     1      -5.122  -1.062   0.434  1.00  0.00    -0.360 OA
HETATM   28  H20 UNL     1      -6.073  -1.381   0.579  1.00  0.00     0.217 HD
ENDBRANCH  15  27
TORSDOF 2
