REMARK  4 active torsions:
REMARK  status: ('A' for Active; 'I' for Inactive)
REMARK    1  A    between atoms: C5_5  and  C6_6 
REMARK    2  A    between atoms: C9_10  and  C10_11 
REMARK    3  A    between atoms: C14_15  and  O1_16 
REMARK    4  A    between atoms: O1_16  and  C15_17 
ROOT
HETATM    1  C10 UNL     1       0.474  -2.425  -0.329  1.00  0.00    -0.005 A 
HETATM    2  C11 UNL     1      -0.268  -3.410  -1.003  1.00  0.00     0.014 A 
HETATM    3  C12 UNL     1      -1.648  -3.272  -1.161  1.00  0.00     0.004 A 
HETATM    4  C13 UNL     1      -2.309  -2.157  -0.642  1.00  0.00     0.037 A 
HETATM    5  C14 UNL     1      -1.587  -1.164   0.047  1.00  0.00     0.070 A 
HETATM    6  C22 UNL     1      -0.202  -1.309   0.201  1.00  0.00     0.050 A 
ENDROOT
BRANCH   1   7
HETATM    7  C9  UNL     1       1.941  -2.589  -0.166  1.00  0.00     0.067 A 
HETATM    8  N1  UNL     1       2.467  -3.845  -0.099  1.00  0.00    -0.260 NA
HETATM    9  C8  UNL     1       3.798  -4.066   0.050  1.00  0.00     0.118 A 
HETATM   10  C7  UNL     1       4.682  -2.991   0.136  1.00  0.00     0.031 A 
HETATM   11  C6  UNL     1       4.189  -1.678   0.059  1.00  0.00    -0.022 A 
HETATM   12  C23 UNL     1       2.806  -1.481  -0.096  1.00  0.00     0.044 A 
BRANCH  11  13
HETATM   13  C5  UNL     1       5.116  -0.520   0.134  1.00  0.00    -0.026 A 
HETATM   14  C4  UNL     1       6.184  -0.518   1.050  1.00  0.00     0.013 A 
HETATM   15  C3  UNL     1       7.055   0.573   1.121  1.00  0.00     0.007 A 
HETATM   16  C2  UNL     1       6.884   1.674   0.269  1.00  0.00    -0.062 A 
HETATM   17  C1  UNL     1       7.796   2.860   0.374  1.00  0.00     0.048 C 
HETATM   18  C25 UNL     1       5.811   1.684  -0.634  1.00  0.00     0.007 A 
HETATM   19  C24 UNL     1       4.938   0.595  -0.706  1.00  0.00     0.013 A 
ENDBRANCH  11  13
ENDBRANCH   1   7
BRANCH   5  20
HETATM   20  O1  UNL     1      -2.196  -0.026   0.603  1.00  0.00    -0.346 OA
BRANCH  20  21
HETATM   21  C15 UNL     1      -3.577   0.327   0.486  1.00  0.00     0.131 C 
HETATM   22  C16 UNL     1      -3.899   1.347   1.589  1.00  0.00     0.058 C 
HETATM   23  C17 UNL     1      -5.338   1.866   1.519  1.00  0.00     0.170 C 
HETATM   24  O2  UNL     1      -5.442   2.844   0.502  1.00  0.00    -0.386 OA
HETATM   25  C18 UNL     1      -5.972   2.346  -0.718  1.00  0.00     0.117 C 
HETATM   26  C19 UNL     1      -7.504   2.288  -0.669  1.00  0.00     0.039 C 
HETATM   27  C20 UNL     1      -5.360   1.011  -1.215  1.00  0.00     0.034 C 
HETATM   28  C21 UNL     1      -3.855   0.891  -0.926  1.00  0.00     0.035 C 
ENDBRANCH  20  21
ENDBRANCH   5  20
TORSDOF 4
