REMARK  2 active torsions:
REMARK  status: ('A' for Active; 'I' for Inactive)
REMARK       I    between atoms: C1_2  and  N1_3 
REMARK    1  A    between atoms: C1_2  and  C22_28 
REMARK       I    between atoms: N1_3  and  C2_4 
REMARK    2  A    between atoms: C2_4  and  C3_6 
ROOT
HETATM    1  O1  UNL     1      -0.046   2.847  -1.901  1.00  0.00    -0.266 OA
HETATM    2  C1  UNL     1       0.087   1.844  -1.144  1.00  0.00     0.275 C 
HETATM    3  N1  UNL     1       1.325   1.635  -0.448  1.00  0.00    -0.288 N 
HETATM    4  C2  UNL     1       2.588   2.115  -0.940  1.00  0.00     0.261 C 
HETATM    5  O2  UNL     1       2.629   2.788  -2.007  1.00  0.00    -0.267 OA
HETATM    6  H1  UNL     1       1.289   1.157   0.481  1.00  0.00     0.172 HD
ENDROOT
BRANCH   2   7
HETATM    7  C22 UNL     1      -1.050   0.909  -0.963  1.00  0.00     0.104 A 
HETATM    8  C23 UNL     1      -2.345   1.315  -1.287  1.00  0.00     0.048 A 
HETATM    9  C24 UNL     1      -3.430   0.435  -1.155  1.00  0.00    -0.011 A 
HETATM   10  C25 UNL     1      -3.193  -0.907  -0.714  1.00  0.00     0.021 A 
HETATM   11  C46 UNL     1      -4.760   0.995  -1.518  1.00  0.00    -0.014 A 
HETATM   12  C26 UNL     1      -1.860  -1.251  -0.367  1.00  0.00     0.253 A 
HETATM   13  C27 UNL     1      -4.272  -1.980  -0.485  1.00  0.00     0.050 C 
HETATM   14  O4  UNL     1      -1.593  -2.399   0.088  1.00  0.00    -0.268 OA
HETATM   15  N3  UNL     1      -0.843  -0.358  -0.511  1.00  0.00    -0.319 N 
HETATM   16  H14 UNL     1       0.126  -0.677  -0.281  1.00  0.00     0.169 HD
HETATM   17  C28 UNL     1      -5.492  -1.997  -1.440  1.00  0.00     0.044 C 
HETATM   18  C29 UNL     1      -6.888  -2.004  -0.805  1.00  0.00    -0.047 A 
HETATM   19  C30 UNL     1      -7.882  -2.687  -1.539  1.00  0.00     0.008 A 
HETATM   20  C34 UNL     1      -7.290  -1.306   0.383  1.00  0.00    -0.019 A 
HETATM   21  C31 UNL     1      -9.209  -2.723  -1.113  1.00  0.00     0.001 A 
HETATM   22  C32 UNL     1      -9.584  -2.069   0.054  1.00  0.00     0.001 A 
HETATM   23  C33 UNL     1      -8.636  -1.368   0.795  1.00  0.00     0.013 A 
HETATM   24  C35 UNL     1      -6.375  -0.524   1.257  1.00  0.00    -0.014 A 
HETATM   25  C36 UNL     1      -6.219  -0.920   2.598  1.00  0.00     0.013 A 
HETATM   26  C40 UNL     1      -5.668   0.606   0.789  1.00  0.00    -0.014 A 
HETATM   27  C37 UNL     1      -5.359  -0.223   3.451  1.00  0.00     0.001 A 
HETATM   28  C38 UNL     1      -4.643   0.875   2.977  1.00  0.00     0.001 A 
HETATM   29  C39 UNL     1      -4.798   1.291   1.654  1.00  0.00     0.013 A 
HETATM   30  C41 UNL     1      -5.824   1.079  -0.595  1.00  0.00    -0.014 A 
HETATM   31  C42 UNL     1      -7.059   1.612  -1.000  1.00  0.00     0.013 A 
HETATM   32  C43 UNL     1      -7.239   2.064  -2.308  1.00  0.00     0.001 A 
HETATM   33  C44 UNL     1      -6.189   1.994  -3.221  1.00  0.00     0.001 A 
HETATM   34  C45 UNL     1      -4.957   1.467  -2.831  1.00  0.00     0.013 A 
ENDBRANCH   2   7
BRANCH   4  35
HETATM   35  C3  UNL     1       3.855   1.846  -0.216  1.00  0.00     0.073 A 
HETATM   36  C4  UNL     1       4.890   2.797  -0.275  1.00  0.00     0.021 A 
HETATM   37  C5  UNL     1       6.113   2.559   0.354  1.00  0.00     0.016 A 
HETATM   38  C6  UNL     1       6.336   1.356   1.037  1.00  0.00     0.005 A 
HETATM   39  C7  UNL     1       5.306   0.400   1.117  1.00  0.00     0.086 A 
HETATM   40  C21 UNL     1       7.648   1.125   1.679  1.00  0.00    -0.013 A 
HETATM   41  C8  UNL     1       4.073   0.644   0.489  1.00  0.00     0.159 A 
HETATM   42  N2  UNL     1       5.492  -0.818   1.853  1.00  0.00    -0.320 N 
HETATM   43  F1  UNL     1       3.131  -0.335   0.502  1.00  0.00    -0.203 F 
HETATM   44  C9  UNL     1       6.319  -1.884   1.369  1.00  0.00     0.257 C 
HETATM   45  H4  UNL     1       4.816  -1.031   2.622  1.00  0.00     0.169 HD
HETATM   46  O3  UNL     1       6.284  -3.001   1.949  1.00  0.00    -0.267 OA
HETATM   47  C10 UNL     1       7.146  -1.727   0.157  1.00  0.00     0.043 A 
HETATM   48  C11 UNL     1       6.898  -2.565  -0.943  1.00  0.00     0.018 A 
HETATM   49  C15 UNL     1       8.174  -0.758   0.078  1.00  0.00    -0.009 A 
HETATM   50  C12 UNL     1       7.636  -2.423  -2.119  1.00  0.00     0.001 A 
HETATM   51  C13 UNL     1       8.640  -1.458  -2.204  1.00  0.00     0.001 A 
HETATM   52  C14 UNL     1       8.917  -0.637  -1.108  1.00  0.00     0.013 A 
HETATM   53  C16 UNL     1       8.520   0.109   1.228  1.00  0.00    -0.014 A 
HETATM   54  C17 UNL     1       9.784  -0.030   1.826  1.00  0.00     0.013 A 
HETATM   55  C18 UNL     1      10.177   0.825   2.860  1.00  0.00     0.001 A 
HETATM   56  C19 UNL     1       9.316   1.830   3.302  1.00  0.00     0.001 A 
HETATM   57  C20 UNL     1       8.060   1.983   2.711  1.00  0.00     0.013 A 
ENDBRANCH   4  35
TORSDOF 2
