REMARK  4 active torsions:
REMARK  status: ('A' for Active; 'I' for Inactive)
REMARK    1  A    between atoms: C2_4  and  C3_5 
REMARK       I    between atoms: C3_5  and  N2_7 
REMARK    2  A    between atoms: N2_7  and  C4_8 
REMARK    3  A    between atoms: C7_11  and  C8_12 
REMARK    4  A    between atoms: C8_12  and  N3_13 
ROOT
HETATM    1  C4  UNL     1      -1.746  -1.444  -1.031  1.00  0.00     0.034 A 
HETATM    2  C5  UNL     1      -1.172  -2.318  -0.098  1.00  0.00     0.030 A 
HETATM    3  C6  UNL     1       0.210  -2.528  -0.082  1.00  0.00     0.011 A 
HETATM    4  C7  UNL     1       1.037  -1.876  -1.011  1.00  0.00    -0.040 A 
HETATM    5  C19 UNL     1       0.461  -1.017  -1.959  1.00  0.00     0.011 A 
HETATM    6  C20 UNL     1      -0.921  -0.806  -1.973  1.00  0.00     0.030 A 
ENDROOT
BRANCH   1   7
HETATM    7  N2  UNL     1      -3.172  -1.263  -1.038  1.00  0.00    -0.325 N 
HETATM    8  C3  UNL     1      -3.810  -0.001  -1.291  1.00  0.00     0.249 C 
HETATM    9  O2  UNL     1      -3.130   1.061  -1.350  1.00  0.00    -0.270 OA
HETATM   10  H3  UNL     1      -3.771  -2.065  -0.743  1.00  0.00     0.169 HD
BRANCH   8  11
HETATM   11  C2  UNL     1      -5.308   0.069  -1.371  1.00  0.00     0.211 A 
HETATM   12  N1  UNL     1      -5.737   1.175  -2.236  1.00  0.00    -0.340 N 
HETATM   13  C1  UNL     1      -6.495   2.090  -1.457  1.00  0.00     0.253 A 
HETATM   14  H1  UNL     1      -5.537   1.265  -3.260  1.00  0.00     0.164 HD
HETATM   15  O1  UNL     1      -6.996   3.155  -1.908  1.00  0.00    -0.268 OA
HETATM   16  C26 UNL     1      -6.591   1.617  -0.099  1.00  0.00     0.040 A 
HETATM   17  C21 UNL     1      -5.901   0.426  -0.032  1.00  0.00    -0.011 A 
HETATM   18  C25 UNL     1      -7.241   2.161   1.007  1.00  0.00     0.017 A 
HETATM   19  C22 UNL     1      -5.840  -0.294   1.164  1.00  0.00     0.011 A 
HETATM   20  C23 UNL     1      -6.484   0.232   2.297  1.00  0.00     0.001 A 
HETATM   21  C24 UNL     1      -7.180   1.455   2.220  1.00  0.00     0.001 A 
ENDBRANCH   8  11
ENDBRANCH   1   7
BRANCH   4  22
HETATM   22  C8  UNL     1       2.525  -2.097  -0.992  1.00  0.00     0.164 C 
BRANCH  22  23
HETATM   23  N3  UNL     1       3.225  -0.902  -0.503  1.00  0.00    -0.344 N 
HETATM   24  C9  UNL     1       3.244  -0.593   0.907  1.00  0.00     0.254 C 
HETATM   25  O3  UNL     1       2.285  -0.962   1.642  1.00  0.00    -0.267 OA
HETATM   26  C10 UNL     1       4.364   0.179   1.505  1.00  0.00     0.038 A 
HETATM   27  C11 UNL     1       4.105   1.036   2.589  1.00  0.00     0.017 A 
HETATM   28  C15 UNL     1       5.685   0.082   0.998  1.00  0.00    -0.042 A 
HETATM   29  C12 UNL     1       5.129   1.808   3.143  1.00  0.00     0.001 A 
HETATM   30  C13 UNL     1       6.421   1.732   2.625  1.00  0.00     0.001 A 
HETATM   31  C14 UNL     1       6.700   0.874   1.560  1.00  0.00     0.008 A 
HETATM   32  C16 UNL     1       6.031  -0.898  -0.101  1.00  0.00     0.041 C 
HETATM   33  C17 UNL     1       5.470  -0.476  -1.467  1.00  0.00     0.025 C 
HETATM   34  C18 UNL     1       3.992  -0.068  -1.436  1.00  0.00     0.127 C 
ENDBRANCH  22  23
ENDBRANCH   4  22
TORSDOF 4
