REMARK  2 active torsions:
REMARK  status: ('A' for Active; 'I' for Inactive)
REMARK    1  A    between atoms: C1_2  and  C2_3 
REMARK       I    between atoms: C1_2  and  N1_10 
REMARK    2  A    between atoms: N2_14  and  C11_15 
ROOT
HETATM    1  O1  UNL     1       1.672  -2.327  -0.744  1.00  0.00    -0.267 OA
HETATM    2  C1  UNL     1       1.912  -1.186  -0.263  1.00  0.00     0.253 C 
HETATM    3  N1  UNL     1       0.825  -0.398   0.271  1.00  0.00    -0.346 N 
HETATM    4  C8  UNL     1       0.838   1.071   0.136  1.00  0.00     0.127 C 
HETATM    5  C9  UNL     1      -0.534   1.664  -0.236  1.00  0.00     0.040 C 
HETATM    6  C10 UNL     1      -1.300   0.826  -1.269  1.00  0.00     0.124 C 
HETATM    7  N2  UNL     1      -2.068  -0.228  -0.592  1.00  0.00    -0.379 N 
HETATM    8  C16 UNL     1      -1.378  -1.433  -0.116  1.00  0.00     0.143 C 
HETATM    9  C17 UNL     1      -0.302  -1.081   0.917  1.00  0.00     0.146 C 
ENDROOT
BRANCH   2  10
HETATM   10  C2  UNL     1       3.309  -0.695  -0.254  1.00  0.00     0.035 A 
HETATM   11  C3  UNL     1       4.178  -1.027  -1.307  1.00  0.00     0.017 A 
HETATM   12  C4  UNL     1       5.502  -0.576  -1.300  1.00  0.00     0.004 A 
HETATM   13  C5  UNL     1       5.971   0.200  -0.237  1.00  0.00     0.042 A 
HETATM   14  C6  UNL     1       5.120   0.520   0.824  1.00  0.00     0.117 A 
HETATM   15  F1  UNL     1       5.581   1.260   1.862  1.00  0.00    -0.206 F 
HETATM   16  C7  UNL     1       3.795   0.071   0.819  1.00  0.00     0.059 A 
ENDBRANCH   2  10
BRANCH   7  17
HETATM   17  C11 UNL     1      -3.446   0.005  -0.238  1.00  0.00     0.034 A 
HETATM   18  C12 UNL     1      -4.380   0.366  -1.222  1.00  0.00     0.048 A 
HETATM   19  C13 UNL     1      -5.711   0.588  -0.862  1.00  0.00     0.120 A 
HETATM   20  N3  UNL     1      -6.098   0.453   0.434  1.00  0.00    -0.249 NA
HETATM   21  C14 UNL     1      -5.218   0.102   1.409  1.00  0.00     0.127 A 
HETATM   22 CL1  UNL     1      -5.772  -0.055   3.063  1.00  0.00    -0.062 Cl
HETATM   23  C15 UNL     1      -3.877  -0.130   1.091  1.00  0.00     0.073 A 
ENDBRANCH   7  17
TORSDOF 2
