REMARK  5 active torsions:
REMARK  status: ('A' for Active; 'I' for Inactive)
REMARK    1  A    between atoms: O1_2  and  C2_3 
REMARK    2  A    between atoms: C2_3  and  C3_5 
REMARK    3  A    between atoms: C10_13  and  N2_14 
REMARK    4  A    between atoms: N2_14  and  C11_15 
REMARK    5  A    between atoms: C13_17  and  C14_18 
ROOT
HETATM    1  N2  UNL     1       0.553  -3.080  -0.241  1.00  0.00     0.099 N 
HETATM    2  H11 UNL     1       0.129  -3.266   0.697  1.00  0.00     0.317 HD
ENDROOT
BRANCH   1   3
HETATM    3  C10 UNL     1       2.022  -3.047  -0.060  1.00  0.00     0.273 C 
HETATM    4  C5  UNL     1       2.506  -1.820   0.633  1.00  0.00     0.073 A 
HETATM    5  N1  UNL     1       2.179  -1.432   1.893  1.00  0.00    -0.262 NA
HETATM    6  C6  UNL     1       3.274  -1.034  -0.181  1.00  0.00    -0.030 A 
HETATM    7  C4  UNL     1       2.625  -0.236   2.378  1.00  0.00     0.134 A 
HETATM    8  C3  UNL     1       3.421   0.613   1.574  1.00  0.00     0.057 A 
HETATM    9  C7  UNL     1       3.741   0.200   0.265  1.00  0.00     0.028 A 
HETATM   10  C8  UNL     1       3.439  -1.623  -1.532  1.00  0.00     0.043 C 
HETATM   11  C9  UNL     1       2.781  -3.016  -1.409  1.00  0.00     0.047 C 
BRANCH   8  12
HETATM   12  C2  UNL     1       3.915   1.911   2.089  1.00  0.00     0.294 C 
HETATM   13  O2  UNL     1       3.570   2.309   3.239  1.00  0.00    -0.259 OA
BRANCH  12  14
HETATM   14  O1  UNL     1       4.775   2.689   1.305  1.00  0.00    -0.322 OA
HETATM   15  C1  UNL     1       5.349   3.909   1.769  1.00  0.00     0.213 C 
ENDBRANCH  12  14
ENDBRANCH   8  12
ENDBRANCH   1   3
BRANCH   1  16
HETATM   16  C11 UNL     1      -0.016  -1.810  -0.714  1.00  0.00     0.226 A 
HETATM   17  C12 UNL     1      -0.320  -1.757  -2.207  1.00  0.00     0.043 A 
HETATM   18  C13 UNL     1      -1.453  -1.964  -1.204  1.00  0.00     0.028 A 
BRANCH  18  19
HETATM   19  C14 UNL     1      -2.445  -0.823  -0.816  1.00  0.00     0.037 C 
HETATM   20  C15 UNL     1      -2.916  -1.102   0.633  1.00  0.00     0.123 C 
HETATM   21  N3  UNL     1      -3.908  -0.149   1.178  1.00  0.00    -0.415 N 
HETATM   22  C16 UNL     1      -5.222  -0.152   0.513  1.00  0.00     0.143 C 
HETATM   23  C17 UNL     1      -3.367   1.180   1.527  1.00  0.00     0.146 C 
HETATM   24  C18 UNL     1      -3.309   2.183   0.357  1.00  0.00     0.291 C 
HETATM   25  N4  UNL     1      -3.107   1.558  -0.965  1.00  0.00     0.086 N 
HETATM   26  C19 UNL     1      -2.995   2.606  -1.997  1.00  0.00     0.310 C 
HETATM   27  C20 UNL     1      -1.949   0.635  -1.003  1.00  0.00     0.278 C 
ENDBRANCH  18  19
ENDBRANCH   1  16
TORSDOF 5
