REMARK  3 active torsions:
REMARK  status: ('A' for Active; 'I' for Inactive)
REMARK    1  A    between atoms: C4_4  and  C5_5 
REMARK       I    between atoms: C5_5  and  N1_7 
REMARK    2  A    between atoms: C10_12  and  C11_13 
REMARK    3  A    between atoms: C15_18  and  O2_19 
ROOT
HETATM    1  C5  UNL     1      -0.256   1.893   1.219  1.00  0.00     0.255 C 
HETATM    2  O1  UNL     1       0.188   2.236   2.346  1.00  0.00    -0.267 OA
HETATM    3  N1  UNL     1      -1.655   1.966   0.951  1.00  0.00    -0.336 N 
HETATM    4  C6  UNL     1      -2.883   2.368   1.695  1.00  0.00     0.139 A 
HETATM    5  C7  UNL     1      -3.785   1.920   0.621  1.00  0.00     0.002 A 
HETATM    6  C8  UNL     1      -4.605   3.041  -0.020  1.00  0.00     0.014 A 
HETATM    7  C9  UNL     1      -5.280   1.762   0.457  1.00  0.00     0.014 A 
HETATM    8  C10 UNL     1      -2.579   1.529  -0.137  1.00  0.00     0.152 A 
ENDROOT
BRANCH   1   9
HETATM    9  C4  UNL     1       0.659   1.372   0.193  1.00  0.00     0.043 A 
HETATM   10  C3  UNL     1       0.911   2.172  -0.927  1.00  0.00     0.024 A 
HETATM   11  C2  UNL     1       1.735   1.713  -1.959  1.00  0.00    -0.058 A 
HETATM   12  C1  UNL     1       2.010   2.585  -3.148  1.00  0.00     0.048 C 
HETATM   13  C18 UNL     1       2.358   0.468  -1.837  1.00  0.00     0.044 A 
HETATM   14  C17 UNL     1       2.142  -0.341  -0.717  1.00  0.00     0.079 A 
HETATM   15  C16 UNL     1       1.235   0.078   0.292  1.00  0.00     0.019 A 
HETATM   16  O3  UNL     1       2.849  -1.555  -0.670  1.00  0.00    -0.339 OA
HETATM   17  C23 UNL     1       0.843  -0.831   1.442  1.00  0.00     0.312 C 
HETATM   18  N3  UNL     1       0.950  -2.244   1.066  1.00  0.00     0.090 N 
HETATM   19  C22 UNL     1       2.272  -2.791   1.387  1.00  0.00     0.307 C 
HETATM   20  H25 UNL     1       0.250  -2.782   1.630  1.00  0.00     0.316 HD
HETATM   21  C19 UNL     1       3.395  -2.177   0.501  1.00  0.00     0.086 C 
HETATM   22  C20 UNL     1       4.332  -3.298   0.017  1.00  0.00     0.048 C 
HETATM   23  C21 UNL     1       4.247  -1.160   1.293  1.00  0.00     0.048 C 
ENDBRANCH   1   9
BRANCH   8  24
HETATM   24  C11 UNL     1      -2.471   0.030  -0.349  1.00  0.00     0.090 A 
HETATM   25  N2  UNL     1      -2.940  -0.795   0.632  1.00  0.00    -0.260 NA
HETATM   26  C12 UNL     1      -2.821  -2.146   0.571  1.00  0.00     0.117 A 
HETATM   27  C13 UNL     1      -2.186  -2.741  -0.515  1.00  0.00     0.022 A 
HETATM   28  C14 UNL     1      -1.680  -1.934  -1.531  1.00  0.00     0.040 A 
HETATM   29  C15 UNL     1      -1.809  -0.544  -1.465  1.00  0.00     0.092 A 
BRANCH  29  30
HETATM   30  O2  UNL     1      -1.266   0.208  -2.510  1.00  0.00    -0.359 OA
HETATM   31  H15 UNL     1      -1.291   1.215  -2.563  1.00  0.00     0.217 HD
ENDBRANCH  29  30
ENDBRANCH   8  24
TORSDOF 3
