REMARK  2 active torsions:
REMARK  status: ('A' for Active; 'I' for Inactive)
REMARK    1  A    between atoms: C3_4  and  C4_5 
REMARK    2  A    between atoms: C9_10  and  C10_11 
REMARK       I    between atoms: C10_11  and  N2_13 
ROOT
HETATM    1  C10 UNL     1       0.437  -2.537   0.321  1.00  0.00     0.256 C 
HETATM    2  O1  UNL     1       0.402  -3.748  -0.029  1.00  0.00    -0.267 OA
HETATM    3  N2  UNL     1       1.627  -2.017   0.928  1.00  0.00    -0.342 N 
HETATM    4  C11 UNL     1       1.612  -1.719   2.365  1.00  0.00     0.153 C 
HETATM    5  C12 UNL     1       2.783  -0.834   2.802  1.00  0.00     0.195 C 
HETATM    6  O2  UNL     1       2.724   0.448   2.182  1.00  0.00    -0.349 OA
HETATM    7  C13 UNL     1       2.827   0.731   0.808  1.00  0.00     0.076 A 
HETATM    8  C14 UNL     1       2.846   2.086   0.447  1.00  0.00     0.037 A 
HETATM    9  C15 UNL     1       2.912   2.471  -0.892  1.00  0.00     0.003 A 
HETATM   10  C16 UNL     1       2.975   1.505  -1.892  1.00  0.00     0.001 A 
HETATM   11  C17 UNL     1       2.961   0.151  -1.558  1.00  0.00     0.011 A 
HETATM   12  C18 UNL     1       2.873  -0.259  -0.214  1.00  0.00    -0.007 A 
HETATM   13  C19 UNL     1       2.789  -1.735   0.081  1.00  0.00     0.167 C 
ENDROOT
BRANCH   1  14
HETATM   14  C9  UNL     1      -0.715  -1.651   0.060  1.00  0.00     0.056 A 
HETATM   15  C2  UNL     1      -1.976  -1.999  -0.401  1.00  0.00     0.021 A 
HETATM   16  C1  UNL     1      -2.462  -3.380  -0.709  1.00  0.00     0.069 C 
HETATM   17  N1  UNL     1      -2.734  -0.896  -0.548  1.00  0.00    -0.362 N 
HETATM   18  C3  UNL     1      -1.975   0.163  -0.191  1.00  0.00     0.018 A 
HETATM   19  H4  UNL     1      -3.727  -0.871  -0.872  1.00  0.00     0.165 HD
HETATM   20  C8  UNL     1      -0.719  -0.276   0.201  1.00  0.00     0.045 A 
BRANCH  18  21
HETATM   21  C4  UNL     1      -2.475   1.603  -0.207  1.00  0.00    -0.009 C 
HETATM   22  C5  UNL     1      -3.028   1.936  -1.607  1.00  0.00     0.021 C 
HETATM   23  C6  UNL     1      -1.344   2.602   0.124  1.00  0.00     0.021 C 
HETATM   24  C7  UNL     1      -3.594   1.752   0.839  1.00  0.00     0.021 C 
ENDBRANCH  18  21
ENDBRANCH   1  14
TORSDOF 2
