REMARK  1 active torsions:
REMARK  status: ('A' for Active; 'I' for Inactive)
REMARK    1  A    between atoms: C5_5  and  C6_6 
ROOT
HETATM    1  C6  UNL     1      -0.623  -0.248   0.232  1.00  0.00    -0.023 A 
HETATM    2  C7  UNL     1      -0.102   0.818   0.979  1.00  0.00     0.013 A 
HETATM    3  C8  UNL     1       1.273   0.932   1.185  1.00  0.00     0.014 A 
HETATM    4  C9  UNL     1       2.164  -0.022   0.659  1.00  0.00    -0.017 A 
HETATM    5  C10 UNL     1       1.642  -1.105  -0.086  1.00  0.00    -0.037 A 
HETATM    6  C11 UNL     1       0.255  -1.206  -0.294  1.00  0.00     0.020 A 
HETATM    7  C12 UNL     1       2.557  -2.120  -0.707  1.00  0.00     0.142 C 
HETATM    8  C13 UNL     1       3.353  -1.444  -1.776  1.00  0.00     0.226 C 
HETATM    9  O1  UNL     1       3.208  -1.797  -2.977  1.00  0.00    -0.273 OA
HETATM   10  N1  UNL     1       4.263  -0.386  -1.454  1.00  0.00    -0.326 N 
HETATM   11  C14 UNL     1       4.604  -0.020  -0.105  1.00  0.00     0.045 A 
HETATM   12  C15 UNL     1       5.954   0.232   0.190  1.00  0.00     0.030 A 
HETATM   13  C16 UNL     1       6.350   0.578   1.481  1.00  0.00     0.002 A 
HETATM   14  C17 UNL     1       5.401   0.687   2.495  1.00  0.00     0.001 A 
HETATM   15  C18 UNL     1       4.052   0.466   2.218  1.00  0.00     0.014 A 
HETATM   16  C19 UNL     1       3.626   0.125   0.918  1.00  0.00     0.001 A 
HETATM   17  H11 UNL     1       4.853  -0.009  -2.231  1.00  0.00     0.169 HD
ENDROOT
BRANCH   1  18
HETATM   18  C5  UNL     1      -2.085  -0.374   0.015  1.00  0.00     0.004 A 
HETATM   19  C4  UNL     1      -2.721  -1.582   0.332  1.00  0.00     0.015 A 
HETATM   20  C3  UNL     1      -4.096  -1.732   0.155  1.00  0.00     0.008 A 
HETATM   21  C2  UNL     1      -4.876  -0.682  -0.350  1.00  0.00    -0.049 A 
HETATM   22  C1  UNL     1      -6.359  -0.893  -0.523  1.00  0.00     0.049 C 
HETATM   23  C24 UNL     1      -4.250   0.543  -0.691  1.00  0.00    -0.001 A 
HETATM   24  C20 UNL     1      -2.849   0.691  -0.508  1.00  0.00     0.078 A 
HETATM   25  C23 UNL     1      -4.970   1.632  -1.221  1.00  0.00     0.016 A 
HETATM   26  N2  UNL     1      -2.244   1.859  -0.862  1.00  0.00    -0.259 NA
HETATM   27  C21 UNL     1      -2.935   2.909  -1.375  1.00  0.00     0.117 A 
HETATM   28  C22 UNL     1      -4.311   2.814  -1.560  1.00  0.00     0.020 A 
ENDBRANCH   1  18
TORSDOF 1
