REMARK  4 active torsions:
REMARK  status: ('A' for Active; 'I' for Inactive)
REMARK    1  A    between atoms: C6_6  and  N1_7 
REMARK    2  A    between atoms: N2_14  and  C13_15 
REMARK    3  A    between atoms: C13_15  and  C14_16 
REMARK       I    between atoms: C14_16  and  N3_18 
REMARK    4  A    between atoms: N3_18  and  C15_19 
ROOT
HETATM    1  N1  UNL     1      -1.937  -0.632   0.145  1.00  0.00    -0.345 N 
HETATM    2  C7  UNL     1      -0.999  -0.611   1.244  1.00  0.00     0.061 A 
HETATM    3  C8  UNL     1      -1.490  -0.434   2.550  1.00  0.00     0.032 A 
HETATM    4  C9  UNL     1      -0.628  -0.447   3.646  1.00  0.00     0.002 A 
HETATM    5  C10 UNL     1       0.737  -0.639   3.456  1.00  0.00     0.002 A 
HETATM    6  C11 UNL     1       1.247  -0.814   2.170  1.00  0.00     0.031 A 
HETATM    7  C12 UNL     1       0.398  -0.800   1.043  1.00  0.00     0.058 A 
HETATM    8  N2  UNL     1       0.963  -0.937  -0.289  1.00  0.00    -0.361 N 
HETATM    9  C20 UNL     1       0.403  -0.162  -1.407  1.00  0.00     0.126 C 
HETATM   10  C21 UNL     1      -0.814  -0.858  -2.031  1.00  0.00     0.040 C 
HETATM   11  C22 UNL     1      -1.709  -1.532  -0.991  1.00  0.00     0.131 C 
ENDROOT
BRANCH   8  12
HETATM   12  C13 UNL     1       2.233  -1.649  -0.504  1.00  0.00     0.114 A 
HETATM   13  C18 UNL     1       2.285  -3.076   0.034  1.00  0.00     0.044 A 
HETATM   14  C19 UNL     1       2.136  -2.834  -1.462  1.00  0.00     0.044 A 
BRANCH  12  15
HETATM   15  C14 UNL     1       3.518  -0.848  -0.517  1.00  0.00     0.251 C 
HETATM   16  O1  UNL     1       4.598  -1.408  -0.849  1.00  0.00    -0.270 OA
HETATM   17  N3  UNL     1       3.512   0.540  -0.139  1.00  0.00    -0.308 N 
HETATM   18  H11 UNL     1       2.613   0.986   0.146  1.00  0.00     0.170 HD
BRANCH  17  19
HETATM   19  C15 UNL     1       4.686   1.365  -0.119  1.00  0.00     0.151 A 
HETATM   20  C16 UNL     1       4.709   2.695   0.248  1.00  0.00     0.071 A 
HETATM   21  C17 UNL     1       6.033   3.055   0.111  1.00  0.00     0.113 A 
HETATM   22  N4  UNL     1       6.732   1.985  -0.312  1.00  0.00    -0.287 N 
HETATM   23  N5  UNL     1       5.922   0.949  -0.456  1.00  0.00    -0.157 NA
HETATM   24  H14 UNL     1       7.758   1.959  -0.503  1.00  0.00     0.188 HD
ENDBRANCH  17  19
ENDBRANCH  12  15
ENDBRANCH   8  12
BRANCH   1  25
HETATM   25  C6  UNL     1      -2.988   0.352   0.074  1.00  0.00     0.035 A 
HETATM   26  C5  UNL     1      -2.699   1.710   0.288  1.00  0.00     0.029 A 
HETATM   27  C4  UNL     1      -3.717   2.666   0.230  1.00  0.00     0.003 A 
HETATM   28  C3  UNL     1      -5.030   2.276  -0.042  1.00  0.00     0.007 A 
HETATM   29  C2  UNL     1      -5.334   0.926  -0.268  1.00  0.00    -0.060 A 
HETATM   30  C1  UNL     1      -6.752   0.502  -0.511  1.00  0.00     0.048 C 
HETATM   31  C23 UNL     1      -4.313  -0.035  -0.192  1.00  0.00     0.036 A 
ENDBRANCH   1  25
TORSDOF 4
