REMARK  2 active torsions:
REMARK  status: ('A' for Active; 'I' for Inactive)
REMARK    1  A    between atoms: C4_4  and  C5_5 
REMARK    2  A    between atoms: C17_19  and  C18_20 
ROOT
HETATM    1  C1  UNL     1      -1.051  -5.711   0.742  1.00  0.00     0.048 C 
HETATM    2  C2  UNL     1      -1.134  -4.214   0.707  1.00  0.00    -0.060 A 
HETATM    3  C3  UNL     1       0.007  -3.441   0.955  1.00  0.00     0.020 A 
HETATM    4  C4  UNL     1      -0.061  -2.040   0.956  1.00  0.00    -0.011 A 
HETATM    5  C15 UNL     1      -1.302  -1.395   0.729  1.00  0.00    -0.014 A 
HETATM    6  C16 UNL     1      -1.424   0.010   0.748  1.00  0.00     0.025 A 
HETATM    7  C17 UNL     1      -2.668   0.630   0.531  1.00  0.00    -0.025 A 
HETATM    8  C24 UNL     1      -3.797  -0.169   0.290  1.00  0.00     0.013 A 
HETATM    9  C25 UNL     1      -3.693  -1.560   0.273  1.00  0.00     0.013 A 
HETATM   10  C26 UNL     1      -2.457  -2.182   0.495  1.00  0.00    -0.025 A 
HETATM   11  C27 UNL     1      -2.364  -3.582   0.490  1.00  0.00     0.019 A 
ENDROOT
BRANCH   4  12
HETATM   12  C5  UNL     1       1.186  -1.280   1.179  1.00  0.00     0.009 A 
HETATM   13  C6  UNL     1       1.638  -1.063   2.486  1.00  0.00     0.015 A 
HETATM   14  C7  UNL     1       2.793  -0.316   2.712  1.00  0.00     0.002 A 
HETATM   15  C8  UNL     1       3.514   0.204   1.635  1.00  0.00     0.012 A 
HETATM   16  C9  UNL     1       3.080  -0.011   0.314  1.00  0.00     0.004 A 
HETATM   17  C10 UNL     1       1.896  -0.743   0.089  1.00  0.00     0.087 A 
HETATM   18  C14 UNL     1       3.939   0.446  -0.838  1.00  0.00     0.313 C 
HETATM   19  O1  UNL     1       1.409  -0.954  -1.205  1.00  0.00    -0.348 OA
HETATM   20  C11 UNL     1       1.124   0.115  -2.100  1.00  0.00     0.206 C 
HETATM   21  C12 UNL     1       2.395   0.696  -2.713  1.00  0.00     0.299 C 
HETATM   22  N1  UNL     1       3.203   1.402  -1.696  1.00  0.00     0.090 N 
HETATM   23  C13 UNL     1       4.150   2.312  -2.365  1.00  0.00     0.310 C 
ENDBRANCH   4  12
BRANCH   7  24
HETATM   24  C18 UNL     1      -2.790   2.111   0.569  1.00  0.00    -0.026 A 
HETATM   25  C19 UNL     1      -1.801   2.928  -0.013  1.00  0.00     0.012 A 
HETATM   26  C20 UNL     1      -1.918   4.320   0.027  1.00  0.00     0.001 A 
HETATM   27  C21 UNL     1      -3.020   4.914   0.647  1.00  0.00     0.000 A 
HETATM   28  C22 UNL     1      -4.007   4.115   1.229  1.00  0.00     0.001 A 
HETATM   29  C23 UNL     1      -3.895   2.722   1.191  1.00  0.00     0.012 A 
ENDBRANCH   7  24
TORSDOF 2
