REMARK  1 active torsions:
REMARK  status: ('A' for Active; 'I' for Inactive)
REMARK       I    between atoms: N1_11  and  C10_12 
REMARK    1  A    between atoms: C10_12  and  C11_14 
ROOT
HETATM    1  C1  UNL     1      -4.814   2.016  -1.206  1.00  0.00     0.049 C 
HETATM    2  C2  UNL     1      -3.953   0.783  -1.306  1.00  0.00    -0.055 A 
HETATM    3  C3  UNL     1      -3.897   0.100  -2.531  1.00  0.00     0.010 A 
HETATM    4  C4  UNL     1      -3.097  -1.030  -2.678  1.00  0.00     0.044 A 
HETATM    5  C5  UNL     1      -2.338  -1.500  -1.609  1.00  0.00     0.128 A 
HETATM    6  F1  UNL     1      -1.516  -2.561  -1.811  1.00  0.00    -0.205 F 
HETATM    7  C6  UNL     1      -2.388  -0.851  -0.360  1.00  0.00     0.022 A 
HETATM    8  C7  UNL     1      -3.214   0.291  -0.197  1.00  0.00    -0.036 A 
HETATM    9  C8  UNL     1      -3.252   0.980   1.154  1.00  0.00     0.060 C 
HETATM   10  C9  UNL     1      -1.965   1.778   1.396  1.00  0.00     0.137 C 
HETATM   11  N1  UNL     1      -0.744   0.981   1.189  1.00  0.00    -0.313 N 
HETATM   12  C10 UNL     1       0.506   1.672   0.981  1.00  0.00     0.258 C 
HETATM   13  O1  UNL     1       0.644   2.850   1.412  1.00  0.00    -0.267 OA
HETATM   14  C21 UNL     1      -0.733  -0.430   1.497  1.00  0.00     0.048 A 
HETATM   15  C22 UNL     1       0.093  -0.913   2.525  1.00  0.00     0.030 A 
HETATM   16  C23 UNL     1       0.120  -2.275   2.830  1.00  0.00     0.002 A 
HETATM   17  C24 UNL     1      -0.679  -3.167   2.115  1.00  0.00     0.001 A 
HETATM   18  C25 UNL     1      -1.501  -2.702   1.086  1.00  0.00     0.014 A 
HETATM   19  C26 UNL     1      -1.530  -1.335   0.757  1.00  0.00     0.005 A 
ENDROOT
BRANCH  12  20
HETATM   20  C11 UNL     1       1.637   1.026   0.275  1.00  0.00     0.033 A 
HETATM   21  C12 UNL     1       1.401   0.112  -0.766  1.00  0.00     0.018 A 
HETATM   22  C13 UNL     1       2.467  -0.502  -1.428  1.00  0.00     0.013 A 
HETATM   23  C14 UNL     1       3.787  -0.205  -1.066  1.00  0.00    -0.026 A 
HETATM   24  C15 UNL     1       4.865  -0.818  -1.724  1.00  0.00     0.012 A 
HETATM   25  C19 UNL     1       4.037   0.727  -0.030  1.00  0.00    -0.025 A 
HETATM   26  C16 UNL     1       6.178  -0.510  -1.356  1.00  0.00     0.001 A 
HETATM   27  C17 UNL     1       6.425   0.409  -0.333  1.00  0.00     0.001 A 
HETATM   28  C18 UNL     1       5.360   1.027   0.329  1.00  0.00     0.012 A 
HETATM   29  C20 UNL     1       2.960   1.339   0.629  1.00  0.00     0.029 A 
ENDBRANCH  12  20
TORSDOF 1
