REMARK  1 active torsions:
REMARK  status: ('A' for Active; 'I' for Inactive)
REMARK    1  A    between atoms: C5_5  and  N1_6 
ROOT
HETATM    1  N1  UNL     1      -0.041  -0.260   0.891  1.00  0.00    -0.376 N 
HETATM    2  C6  UNL     1       0.078  -1.257   1.959  1.00  0.00     0.132 C 
HETATM    3  C7  UNL     1      -0.596  -2.585   1.572  1.00  0.00     0.123 C 
HETATM    4  C8  UNL     1      -1.725  -2.500   0.565  1.00  0.00     0.222 C 
HETATM    5  O1  UNL     1      -1.918  -3.494  -0.186  1.00  0.00    -0.273 OA
HETATM    6  N2  UNL     1      -2.613  -1.367   0.465  1.00  0.00    -0.337 N 
HETATM    7  C9  UNL     1      -3.783  -1.363  -0.417  1.00  0.00     0.165 A 
HETATM    8  C10 UNL     1      -4.423  -0.057  -0.129  1.00  0.00    -0.032 A 
HETATM    9  C11 UNL     1      -5.600   0.458  -0.674  1.00  0.00     0.009 A 
HETATM   10  C12 UNL     1      -6.043   1.719  -0.244  1.00  0.00     0.001 A 
HETATM   11  C13 UNL     1      -5.309   2.438   0.720  1.00  0.00     0.001 A 
HETATM   12  C14 UNL     1      -4.128   1.899   1.255  1.00  0.00     0.010 A 
HETATM   13  C15 UNL     1      -3.702   0.646   0.808  1.00  0.00    -0.026 A 
HETATM   14  C16 UNL     1      -2.496  -0.119   1.228  1.00  0.00     0.139 A 
HETATM   15  C17 UNL     1      -1.205   0.634   0.856  1.00  0.00     0.153 C 
ENDROOT
BRANCH   1  16
HETATM   16  C5  UNL     1       0.919  -0.233  -0.178  1.00  0.00     0.060 A 
HETATM   17  C4  UNL     1       0.532  -0.626  -1.464  1.00  0.00     0.032 A 
HETATM   18  C3  UNL     1       1.451  -0.623  -2.513  1.00  0.00     0.010 A 
HETATM   19  C2  UNL     1       2.780  -0.220  -2.304  1.00  0.00    -0.049 A 
HETATM   20  C1  UNL     1       3.738  -0.235  -3.468  1.00  0.00     0.049 C 
HETATM   21  C23 UNL     1       3.182   0.196  -1.009  1.00  0.00     0.001 A 
HETATM   22  C18 UNL     1       2.240   0.187   0.052  1.00  0.00     0.093 A 
HETATM   23  C22 UNL     1       4.493   0.627  -0.729  1.00  0.00     0.022 A 
HETATM   24  N3  UNL     1       2.614   0.598   1.294  1.00  0.00    -0.257 NA
HETATM   25  C19 UNL     1       3.874   1.019   1.569  1.00  0.00     0.124 A 
HETATM   26  C20 UNL     1       4.841   1.055   0.559  1.00  0.00    -0.044 A 
HETATM   27  C21 UNL     1       6.247   1.479   0.866  1.00  0.00     0.049 C 
ENDBRANCH   1  16
TORSDOF 1
