REMARK  6 active torsions:
REMARK  status: ('A' for Active; 'I' for Inactive)
REMARK       I    between atoms: C1_2  and  N1_3 
REMARK    1  A    between atoms: C1_2  and  C23_29 
REMARK       I    between atoms: N1_3  and  C2_4 
REMARK    2  A    between atoms: C2_4  and  C3_6 
REMARK    3  A    between atoms: C25_31  and  C46_53 
REMARK    4  A    between atoms: C26_32  and  C29_36 
REMARK    5  A    between atoms: C34_41  and  C35_42 
REMARK    6  A    between atoms: C40_47  and  C41_48 
ROOT
HETATM    1  O1  UNL     1      -0.887   2.592   1.451  1.00  0.00    -0.267 OA
HETATM    2  C1  UNL     1      -0.841   1.475   0.864  1.00  0.00     0.261 C 
HETATM    3  N1  UNL     1       0.401   0.754   0.797  1.00  0.00    -0.289 N 
HETATM    4  C2  UNL     1       1.684   1.409   0.875  1.00  0.00     0.258 C 
HETATM    5  O2  UNL     1       1.734   2.670   0.815  1.00  0.00    -0.267 OA
HETATM    6  H1  UNL     1       0.335  -0.282   0.707  1.00  0.00     0.172 HD
ENDROOT
BRANCH   2   7
HETATM    7  C23 UNL     1      -2.080   0.903   0.289  1.00  0.00     0.071 C 
HETATM    8  C24 UNL     1      -3.331   1.264   0.822  1.00  0.00     0.033 C 
HETATM    9  C25 UNL     1      -4.520   0.873   0.173  1.00  0.00    -0.013 C 
HETATM   10  C26 UNL     1      -4.451  -0.240  -0.685  1.00  0.00    -0.011 C 
HETATM   11  C27 UNL     1      -3.232  -0.461  -1.356  1.00  0.00     0.056 C 
HETATM   12  C28 UNL     1      -2.049   0.104  -0.868  1.00  0.00     0.133 C 
HETATM   13  F2  UNL     1      -0.879  -0.179  -1.494  1.00  0.00    -0.205 F 
BRANCH   9  14
HETATM   14  C46 UNL     1      -5.412   1.997  -0.223  1.00  0.00    -0.014 A 
HETATM   15  C41 UNL     1      -6.827   1.945  -0.145  1.00  0.00    -0.014 A 
HETATM   16  C42 UNL     1      -7.567   3.075  -0.575  1.00  0.00     0.013 A 
HETATM   17  C43 UNL     1      -6.938   4.222  -1.051  1.00  0.00     0.001 A 
HETATM   18  C44 UNL     1      -5.556   4.267  -1.140  1.00  0.00     0.001 A 
HETATM   19  C45 UNL     1      -4.801   3.167  -0.743  1.00  0.00     0.013 A 
BRANCH  15  20
HETATM   20  C40 UNL     1      -7.591   0.737   0.272  1.00  0.00    -0.014 C 
HETATM   21  C35 UNL     1      -7.558  -0.387  -0.581  1.00  0.00    -0.014 C 
HETATM   22  C36 UNL     1      -8.770  -0.755  -1.205  1.00  0.00     0.013 C 
HETATM   23  C37 UNL     1      -9.988  -0.339  -0.665  1.00  0.00     0.001 C 
HETATM   24  C38 UNL     1      -9.996   0.460   0.479  1.00  0.00     0.001 C 
HETATM   25  C39 UNL     1      -8.796   0.989   0.961  1.00  0.00     0.013 C 
BRANCH  21  26
HETATM   26  C34 UNL     1      -6.645  -1.517  -0.238  1.00  0.00    -0.014 A 
HETATM   27  C29 UNL     1      -5.226  -1.461  -0.320  1.00  0.00    -0.014 A 
HETATM   28  C30 UNL     1      -4.483  -2.608   0.059  1.00  0.00     0.013 A 
HETATM   29  C31 UNL     1      -5.107  -3.774   0.491  1.00  0.00     0.001 A 
HETATM   30  C32 UNL     1      -6.488  -3.823   0.591  1.00  0.00     0.001 A 
HETATM   31  C33 UNL     1      -7.246  -2.709   0.243  1.00  0.00     0.013 A 
ENDBRANCH  21  26
ENDBRANCH  15  20
ENDBRANCH   9  14
ENDBRANCH   2   7
BRANCH   4  32
HETATM   32  C3  UNL     1       2.962   0.651   1.013  1.00  0.00     0.034 A 
HETATM   33  C4  UNL     1       3.037  -0.743   0.833  1.00  0.00     0.018 A 
HETATM   34  C5  UNL     1       4.254  -1.413   0.974  1.00  0.00     0.015 A 
HETATM   35  C6  UNL     1       5.425  -0.711   1.284  1.00  0.00     0.002 A 
HETATM   36  C7  UNL     1       5.374   0.694   1.438  1.00  0.00     0.046 A 
HETATM   37  C22 UNL     1       6.695  -1.462   1.379  1.00  0.00    -0.013 A 
HETATM   38  C8  UNL     1       4.142   1.352   1.325  1.00  0.00     0.047 A 
HETATM   39  N2  UNL     1       6.528   1.469   1.797  1.00  0.00    -0.326 N 
HETATM   40  C9  UNL     1       7.851   1.252   1.295  1.00  0.00     0.226 C 
HETATM   41  H5  UNL     1       6.405   2.231   2.504  1.00  0.00     0.169 HD
HETATM   42  O3  UNL     1       8.789   1.075   2.117  1.00  0.00    -0.273 OA
HETATM   43  C10 UNL     1       8.181   1.407  -0.168  1.00  0.00     0.142 C 
HETATM   44  C11 UNL     1       7.350   0.566  -1.120  1.00  0.00    -0.035 A 
HETATM   45  C12 UNL     1       6.831   1.184  -2.274  1.00  0.00     0.009 A 
HETATM   46  C16 UNL     1       7.208  -0.841  -0.980  1.00  0.00     0.020 A 
HETATM   47  C13 UNL     1       6.169   0.437  -3.252  1.00  0.00     0.004 A 
HETATM   48  C14 UNL     1       6.036  -0.943  -3.106  1.00  0.00     0.043 A 
HETATM   49  C15 UNL     1       6.548  -1.583  -1.976  1.00  0.00     0.128 A 
HETATM   50  F1  UNL     1       6.373  -2.926  -1.841  1.00  0.00    -0.205 F 
HETATM   51  C17 UNL     1       7.569  -1.523   0.274  1.00  0.00    -0.011 A 
HETATM   52  C18 UNL     1       8.766  -2.247   0.367  1.00  0.00     0.013 A 
HETATM   53  C19 UNL     1       9.096  -2.900   1.557  1.00  0.00     0.001 A 
HETATM   54  C20 UNL     1       8.232  -2.837   2.657  1.00  0.00     0.001 A 
HETATM   55  C21 UNL     1       7.031  -2.127   2.567  1.00  0.00     0.013 A 
ENDBRANCH   4  32
TORSDOF 6
