REMARK  2 active torsions:
REMARK  status: ('A' for Active; 'I' for Inactive)
REMARK    1  A    between atoms: C5_5  and  C6_6 
REMARK    2  A    between atoms: C10_10  and  N1_11 
ROOT
HETATM    1  C1  UNL     1      -1.136  -3.029   2.380  1.00  0.00     0.001 A 
HETATM    2  C2  UNL     1      -2.314  -2.518   1.851  1.00  0.00     0.008 A 
HETATM    3  C3  UNL     1      -2.306  -1.680   0.719  1.00  0.00    -0.047 A 
HETATM    4  C4  UNL     1      -1.052  -1.360   0.094  1.00  0.00    -0.040 A 
HETATM    5  C5  UNL     1       0.141  -1.883   0.674  1.00  0.00    -0.019 A 
HETATM    6  C16 UNL     1       0.082  -2.716   1.797  1.00  0.00     0.013 A 
HETATM    7  C17 UNL     1      -0.879  -0.449  -1.131  1.00  0.00     0.044 C 
HETATM    8  C18 UNL     1      -2.115  -0.021  -1.922  1.00  0.00     0.043 C 
HETATM    9  C19 UNL     1      -3.015   0.830  -1.072  1.00  0.00    -0.051 A 
HETATM   10  C20 UNL     1      -3.071   2.222  -1.262  1.00  0.00     0.007 A 
HETATM   11  C21 UNL     1      -3.849   3.017  -0.418  1.00  0.00     0.001 A 
HETATM   12  C22 UNL     1      -4.563   2.433   0.630  1.00  0.00     0.001 A 
HETATM   13  C23 UNL     1      -4.503   1.053   0.834  1.00  0.00     0.008 A 
HETATM   14  C24 UNL     1      -3.733   0.243  -0.018  1.00  0.00    -0.048 A 
HETATM   15  C25 UNL     1      -3.661  -1.243   0.199  1.00  0.00     0.078 C 
ENDROOT
BRANCH   5  16
HETATM   16  C6  UNL     1       1.481  -1.575   0.130  1.00  0.00    -0.023 A 
HETATM   17  C7  UNL     1       2.184  -2.547  -0.592  1.00  0.00     0.012 A 
HETATM   18  C8  UNL     1       3.449  -2.259  -1.106  1.00  0.00     0.003 A 
HETATM   19  C9  UNL     1       4.022  -1.001  -0.899  1.00  0.00     0.030 A 
HETATM   20  C10 UNL     1       3.336  -0.015  -0.166  1.00  0.00     0.039 A 
HETATM   21  C15 UNL     1       2.062  -0.317   0.351  1.00  0.00     0.042 A 
BRANCH  20  22
HETATM   22  N1  UNL     1       3.928   1.282   0.052  1.00  0.00    -0.333 N 
HETATM   23  C11 UNL     1       4.824   1.902  -0.746  1.00  0.00     0.096 A 
HETATM   24  C12 UNL     1       5.158   3.130  -0.214  1.00  0.00     0.019 A 
HETATM   25  C13 UNL     1       4.437   3.263   0.955  1.00  0.00     0.019 A 
HETATM   26  C14 UNL     1       3.690   2.112   1.091  1.00  0.00     0.096 A 
ENDBRANCH  20  22
ENDBRANCH   5  16
TORSDOF 2
