REMARK  4 active torsions:
REMARK  status: ('A' for Active; 'I' for Inactive)
REMARK    1  A    between atoms: O1_2  and  C2_3 
REMARK    2  A    between atoms: C6_7  and  C7_8 
REMARK       I    between atoms: C7_8  and  N1_10 
REMARK    3  A    between atoms: N1_10  and  C8_11 
REMARK    4  A    between atoms: C8_11  and  C9_12 
ROOT
HETATM    1  C7  UNL     1       2.034  -1.145   1.205  1.00  0.00     0.253 C 
HETATM    2  O2  UNL     1       1.546  -1.151   2.368  1.00  0.00    -0.268 OA
HETATM    3  N1  UNL     1       1.277  -1.678   0.107  1.00  0.00    -0.356 N 
HETATM    4  H7  UNL     1       1.756  -1.838  -0.809  1.00  0.00     0.162 HD
ENDROOT
BRANCH   3   5
HETATM    5  C8  UNL     1      -0.098  -2.156   0.262  1.00  0.00     0.127 C 
BRANCH   5   6
HETATM    6  C9  UNL     1      -1.094  -0.978   0.350  1.00  0.00     0.008 C 
HETATM    7  C10 UNL     1      -1.201  -0.246  -1.044  1.00  0.00     0.007 C 
HETATM    8  C11 UNL     1      -1.720   1.238  -1.055  1.00  0.00     0.005 C 
HETATM    9  C12 UNL     1      -3.102   1.614  -0.412  1.00  0.00    -0.007 C 
HETATM   10  C13 UNL     1      -3.274   0.877   0.896  1.00  0.00     0.073 C 
HETATM   11  C18 UNL     1      -4.386   1.360  -1.283  1.00  0.00     0.039 C 
HETATM   12  C14 UNL     1      -3.628  -0.618   0.551  1.00  0.00     0.165 C 
HETATM   13  C15 UNL     1      -2.452  -1.504   0.955  1.00  0.00     0.074 C 
HETATM   14  O3  UNL     1      -4.864  -0.903   1.147  1.00  0.00    -0.352 OA
HETATM   15  O4  UNL     1      -3.832  -0.851  -0.829  1.00  0.00    -0.348 OA
HETATM   16  C16 UNL     1      -5.766  -0.341   0.202  1.00  0.00     0.203 C 
HETATM   17  C17 UNL     1      -4.940  -0.084  -1.074  1.00  0.00     0.149 C 
ENDBRANCH   5   6
ENDBRANCH   3   5
BRANCH   1  18
HETATM   18  C6  UNL     1       3.410  -0.647   1.002  1.00  0.00     0.056 A 
HETATM   19  C5  UNL     1       4.417  -1.076   1.881  1.00  0.00     0.019 A 
HETATM   20  C4  UNL     1       5.733  -0.648   1.715  1.00  0.00     0.004 A 
HETATM   21  C3  UNL     1       6.061   0.223   0.676  1.00  0.00     0.038 A 
HETATM   22  C2  UNL     1       5.066   0.688  -0.204  1.00  0.00     0.090 A 
HETATM   23  C19 UNL     1       3.738   0.255  -0.036  1.00  0.00     0.083 A 
HETATM   24 CL1  UNL     1       2.494   0.930  -1.089  1.00  0.00    -0.080 Cl
BRANCH  22  25
HETATM   25  O1  UNL     1       5.358   1.582  -1.247  1.00  0.00    -0.354 OA
HETATM   26  C1  UNL     1       6.654   2.100  -1.528  1.00  0.00     0.210 C 
ENDBRANCH  22  25
ENDBRANCH   1  18
TORSDOF 4
