REMARK  2 active torsions:
REMARK  status: ('A' for Active; 'I' for Inactive)
REMARK    1  A    between atoms: C6_8  and  N1_9 
REMARK       I    between atoms: N1_9  and  C7_10 
REMARK    2  A    between atoms: C7_10  and  C8_12 
ROOT
HETATM    1  O1  UNL     1      -5.870   1.470  -1.523  1.00  0.00    -0.272 OA
HETATM    2  C1  UNL     1      -5.299   0.925  -0.541  1.00  0.00     0.234 C 
HETATM    3  C2  UNL     1      -5.397  -0.567  -0.405  1.00  0.00     0.182 C 
HETATM    4  S1  UNL     1      -4.998  -1.120   1.280  1.00  0.00    -0.120 SA
HETATM    5  C3  UNL     1      -3.240  -0.995   0.963  1.00  0.00     0.016 A 
HETATM    6  C4  UNL     1      -2.504  -2.170   0.778  1.00  0.00     0.022 A 
HETATM    7  C5  UNL     1      -1.129  -2.111   0.548  1.00  0.00     0.031 A 
HETATM    8  C6  UNL     1      -0.469  -0.876   0.512  1.00  0.00     0.036 A 
HETATM    9  C14 UNL     1      -1.217   0.305   0.662  1.00  0.00     0.048 A 
HETATM   10  C15 UNL     1      -2.606   0.257   0.876  1.00  0.00     0.051 A 
HETATM   11  C16 UNL     1      -3.355   1.526   1.028  1.00  0.00     0.259 C 
HETATM   12  O4  UNL     1      -2.820   2.461   1.683  1.00  0.00    -0.267 OA
HETATM   13  N2  UNL     1      -4.643   1.763   0.427  1.00  0.00    -0.293 N 
HETATM   14  H10 UNL     1      -5.033   2.727   0.538  1.00  0.00     0.172 HD
ENDROOT
BRANCH   8  15
HETATM   15  N1  UNL     1       0.947  -0.840   0.260  1.00  0.00    -0.321 N 
HETATM   16  C7  UNL     1       1.830   0.156   0.802  1.00  0.00     0.280 C 
HETATM   17  O2  UNL     1       1.466   0.861   1.781  1.00  0.00    -0.265 OA
HETATM   18  H5  UNL     1       1.368  -1.642  -0.262  1.00  0.00     0.169 HD
BRANCH  16  19
HETATM   19  C8  UNL     1       3.184   0.344   0.256  1.00  0.00     0.145 A 
HETATM   20  C9  UNL     1       3.717  -0.299  -0.875  1.00  0.00     0.058 A 
HETATM   21  C10 UNL     1       4.985   0.218  -0.963  1.00  0.00     0.008 A 
HETATM   22  C11 UNL     1       6.089   0.081  -1.792  1.00  0.00     0.022 A 
HETATM   23  C13 UNL     1       5.136   1.082   0.043  1.00  0.00     0.127 A 
HETATM   24  C12 UNL     1       7.131   0.914  -1.351  1.00  0.00     0.053 A 
HETATM   25  S2  UNL     1       6.651   1.788   0.044  1.00  0.00    -0.076 SA
HETATM   26  O3  UNL     1       4.070   1.177   0.790  1.00  0.00    -0.297 OA
ENDBRANCH  16  19
ENDBRANCH   8  15
TORSDOF 2
