REMARK  3 active torsions:
REMARK  status: ('A' for Active; 'I' for Inactive)
REMARK    1  A    between atoms: O1_2  and  C2_3 
REMARK    2  A    between atoms: C7_8  and  C8_9 
REMARK    3  A    between atoms: C10_11  and  C11_12 
REMARK       I    between atoms: C11_12  and  N1_14 
ROOT
HETATM    1  C11 UNL     1       1.183  -1.128  -0.511  1.00  0.00     0.261 C 
HETATM    2  O2  UNL     1       1.877  -1.975  -1.134  1.00  0.00    -0.267 OA
HETATM    3  N1  UNL     1       1.758   0.152  -0.190  1.00  0.00    -0.313 N 
HETATM    4  C12 UNL     1       1.454   0.834   1.078  1.00  0.00     0.134 C 
HETATM    5  C13 UNL     1       2.724   1.328   1.784  1.00  0.00     0.050 C 
HETATM    6  C14 UNL     1       3.704   0.189   2.104  1.00  0.00     0.271 C 
HETATM    7  N2  UNL     1       4.037  -0.615   0.917  1.00  0.00     0.087 N 
HETATM    8  C15 UNL     1       4.821   0.137  -0.076  1.00  0.00     0.312 C 
HETATM    9  C16 UNL     1       3.974   0.819  -1.140  1.00  0.00     0.014 A 
HETATM   10  C17 UNL     1       4.662   1.504  -2.156  1.00  0.00     0.127 A 
HETATM   11  N3  UNL     1       3.986   2.133  -3.153  1.00  0.00    -0.272 NA
HETATM   12  C18 UNL     1       2.631   2.129  -3.211  1.00  0.00     0.118 A 
HETATM   13  C19 UNL     1       1.894   1.469  -2.231  1.00  0.00     0.049 A 
HETATM   14  C20 UNL     1       2.554   0.813  -1.185  1.00  0.00     0.048 A 
HETATM   15  H15 UNL     1       4.622  -1.418   1.247  1.00  0.00     0.316 HD
ENDROOT
BRANCH   1  16
HETATM   16  C10 UNL     1      -0.215  -1.457  -0.160  1.00  0.00     0.064 A 
HETATM   17  C9  UNL     1      -1.244  -0.558   0.039  1.00  0.00     0.057 A 
HETATM   18  C8  UNL     1      -2.371  -1.324   0.297  1.00  0.00     0.089 A 
HETATM   19  O3  UNL     1      -2.054  -2.601   0.264  1.00  0.00    -0.314 OA
HETATM   20  C21 UNL     1      -0.776  -2.716  -0.014  1.00  0.00     0.065 A 
HETATM   21  C22 UNL     1      -0.077  -4.030  -0.144  1.00  0.00     0.077 C 
BRANCH  18  22
HETATM   22  C7  UNL     1      -3.737  -0.835   0.598  1.00  0.00     0.031 A 
HETATM   23  C2  UNL     1      -4.228   0.396   0.099  1.00  0.00     0.081 A 
HETATM   24  C3  UNL     1      -5.532   0.808   0.446  1.00  0.00     0.038 A 
HETATM   25  C4  UNL     1      -6.339   0.004   1.251  1.00  0.00     0.003 A 
HETATM   26  C5  UNL     1      -5.864  -1.220   1.718  1.00  0.00     0.001 A 
HETATM   27  C6  UNL     1      -4.574  -1.639   1.392  1.00  0.00     0.017 A 
BRANCH  23  28
HETATM   28  O1  UNL     1      -3.421   1.169  -0.751  1.00  0.00    -0.355 OA
HETATM   29  C1  UNL     1      -3.798   2.422  -1.312  1.00  0.00     0.210 C 
ENDBRANCH  23  28
ENDBRANCH  18  22
ENDBRANCH   1  16
TORSDOF 3
