REMARK  3 active torsions:
REMARK  status: ('A' for Active; 'I' for Inactive)
REMARK    1  A    between atoms: C4_4  and  C5_5 
REMARK       I    between atoms: C5_5  and  N1_7 
REMARK       I    between atoms: N1_7  and  C7_9 
REMARK    2  A    between atoms: C7_9  and  C8_11 
REMARK    3  A    between atoms: C11_14  and  N2_15 
ROOT
HETATM    1  C8  UNL     1      -0.097  -1.974  -0.204  1.00  0.00     0.038 A 
HETATM    2  C9  UNL     1      -0.225  -0.579  -0.301  1.00  0.00     0.020 A 
HETATM    3  C10 UNL     1       0.822   0.202  -0.789  1.00  0.00     0.030 A 
HETATM    4  C11 UNL     1       2.024  -0.394  -1.192  1.00  0.00     0.031 A 
HETATM    5  C22 UNL     1       2.163  -1.786  -1.097  1.00  0.00     0.037 A 
HETATM    6  C23 UNL     1       1.111  -2.588  -0.622  1.00  0.00    -0.044 A 
HETATM    7  C24 UNL     1       1.308  -4.080  -0.557  1.00  0.00     0.049 C 
ENDROOT
BRANCH   1   8
HETATM    8  C7  UNL     1      -1.228  -2.751   0.358  1.00  0.00     0.260 C 
HETATM    9  N1  UNL     1      -2.589  -2.434   0.009  1.00  0.00    -0.283 N 
HETATM   10  C5  UNL     1      -3.637  -2.600   0.982  1.00  0.00     0.279 C 
HETATM   11  C6  UNL     1      -2.948  -2.273  -1.402  1.00  0.00     0.163 C 
HETATM   12  O1  UNL     1      -4.730  -3.127   0.634  1.00  0.00    -0.265 OA
HETATM   13  O2  UNL     1      -0.998  -3.671   1.189  1.00  0.00    -0.267 OA
BRANCH  10  14
HETATM   14  C4  UNL     1      -3.465  -2.125   2.375  1.00  0.00     0.125 A 
HETATM   15  C3  UNL     1      -4.384  -2.476   3.378  1.00  0.00     0.047 A 
HETATM   16  C2  UNL     1      -4.200  -2.002   4.685  1.00  0.00    -0.019 A 
HETATM   17  C1  UNL     1      -5.189  -2.343   5.762  1.00  0.00     0.051 C 
HETATM   18  C26 UNL     1      -3.115  -1.157   4.961  1.00  0.00     0.139 A 
HETATM   19  C25 UNL     1      -2.225  -0.826   3.938  1.00  0.00     0.160 A 
HETATM   20  F1  UNL     1      -2.923  -0.655   6.206  1.00  0.00    -0.204 F 
HETATM   21  N3  UNL     1      -2.419  -1.310   2.684  1.00  0.00    -0.252 NA
ENDBRANCH  10  14
ENDBRANCH   1   8
BRANCH   4  22
HETATM   22  N2  UNL     1       3.112   0.409  -1.689  1.00  0.00    -0.374 N 
HETATM   23  C12 UNL     1       3.676   0.147  -3.016  1.00  0.00     0.150 C 
HETATM   24  C13 UNL     1       3.100   1.125  -4.033  1.00  0.00     0.195 C 
HETATM   25  O3  UNL     1       3.499   2.466  -3.754  1.00  0.00    -0.349 OA
HETATM   26  C14 UNL     1       2.916   3.248  -2.751  1.00  0.00     0.076 A 
HETATM   27  C15 UNL     1       2.379   4.489  -3.111  1.00  0.00     0.038 A 
HETATM   28  C20 UNL     1       2.873   2.833  -1.400  1.00  0.00    -0.006 A 
HETATM   29  C16 UNL     1       1.760   5.299  -2.158  1.00  0.00     0.009 A 
HETATM   30  C17 UNL     1       1.673   4.879  -0.826  1.00  0.00    -0.061 A 
HETATM   31  C18 UNL     1       1.042   5.762   0.207  1.00  0.00     0.048 C 
HETATM   32  C19 UNL     1       2.253   3.660  -0.448  1.00  0.00     0.018 A 
HETATM   33  C21 UNL     1       3.575   1.580  -0.942  1.00  0.00     0.164 C 
ENDBRANCH   4  22
TORSDOF 3
