REMARK  1 active torsions:
REMARK  status: ('A' for Active; 'I' for Inactive)
REMARK    1  A    between atoms: C21_24  and  C22_25 
ROOT
HETATM    1  O1  UNL     1       0.217   4.488  -0.072  1.00  0.00    -0.267 OA
HETATM    2  C1  UNL     1       0.188   3.236   0.073  1.00  0.00     0.261 C 
HETATM    3  N1  UNL     1      -0.870   2.489  -0.533  1.00  0.00    -0.292 N 
HETATM    4  C2  UNL     1      -1.806   1.771   0.278  1.00  0.00     0.242 C 
HETATM    5  O2  UNL     1      -2.611   2.419   1.002  1.00  0.00    -0.272 OA
HETATM    6  C3  UNL     1      -1.798   0.244   0.300  1.00  0.00     0.101 C 
HETATM    7  C4  UNL     1      -1.708  -0.245  -1.178  1.00  0.00     0.069 C 
HETATM    8  C5  UNL     1      -2.886   0.238  -1.996  1.00  0.00    -0.045 A 
HETATM    9  C6  UNL     1      -2.715   0.587  -3.347  1.00  0.00     0.008 A 
HETATM   10  C7  UNL     1      -3.787   1.089  -4.085  1.00  0.00     0.001 A 
HETATM   11  C8  UNL     1      -5.034   1.251  -3.483  1.00  0.00     0.001 A 
HETATM   12  C9  UNL     1      -5.222   0.888  -2.147  1.00  0.00     0.013 A 
HETATM   13  C10 UNL     1      -4.157   0.351  -1.397  1.00  0.00    -0.019 A 
HETATM   14  C11 UNL     1      -4.322  -0.122   0.006  1.00  0.00    -0.018 A 
HETATM   15  C12 UNL     1      -5.580  -0.547   0.479  1.00  0.00     0.013 A 
HETATM   16  C13 UNL     1      -5.701  -1.162   1.721  1.00  0.00     0.001 A 
HETATM   17  C14 UNL     1      -4.569  -1.410   2.487  1.00  0.00     0.001 A 
HETATM   18  C15 UNL     1      -3.313  -1.007   2.036  1.00  0.00     0.010 A 
HETATM   19  C16 UNL     1      -3.164  -0.296   0.818  1.00  0.00    -0.024 A 
HETATM   20  C17 UNL     1       1.263   2.574   0.842  1.00  0.00     0.067 A 
HETATM   21  C18 UNL     1       1.600   3.081   2.105  1.00  0.00     0.020 A 
HETATM   22  C19 UNL     1       2.661   2.537   2.825  1.00  0.00     0.002 A 
HETATM   23  C20 UNL     1       3.439   1.523   2.269  1.00  0.00     0.015 A 
HETATM   24  C21 UNL     1       3.148   1.018   0.991  1.00  0.00     0.012 A 
HETATM   25  C28 UNL     1       2.007   1.502   0.297  1.00  0.00     0.103 A 
HETATM   26  O3  UNL     1       1.632   0.985  -0.953  1.00  0.00    -0.308 OA
HETATM   27  C29 UNL     1       1.543  -0.377  -1.297  1.00  0.00     0.087 A 
HETATM   28  C30 UNL     1       1.982  -0.750  -2.574  1.00  0.00     0.038 A 
HETATM   29  C31 UNL     1       1.878  -2.072  -3.008  1.00  0.00     0.003 A 
HETATM   30  C32 UNL     1       1.315  -3.038  -2.175  1.00  0.00     0.001 A 
HETATM   31  C33 UNL     1       0.850  -2.684  -0.908  1.00  0.00     0.015 A 
HETATM   32  C34 UNL     1       0.935  -1.355  -0.460  1.00  0.00     0.009 A 
HETATM   33  C35 UNL     1       0.471  -1.043   0.908  1.00  0.00    -0.015 C 
HETATM   34  C36 UNL     1       1.276  -1.556   1.941  1.00  0.00     0.013 C 
HETATM   35  C37 UNL     1       1.161  -1.087   3.245  1.00  0.00     0.001 C 
HETATM   36  C38 UNL     1       0.237  -0.096   3.540  1.00  0.00     0.001 C 
HETATM   37  C39 UNL     1      -0.633   0.362   2.553  1.00  0.00     0.010 C 
HETATM   38  C40 UNL     1      -0.611  -0.160   1.231  1.00  0.00    -0.024 C 
HETATM   39  H1  UNL     1      -1.229   2.832  -1.452  1.00  0.00     0.172 HD
ENDROOT
BRANCH  24  40
HETATM   40  C22 UNL     1       4.108   0.074   0.363  1.00  0.00     0.015 A 
HETATM   41  C23 UNL     1       4.533  -1.071   1.061  1.00  0.00     0.015 A 
HETATM   42  C24 UNL     1       5.420  -1.973   0.468  1.00  0.00     0.001 A 
HETATM   43  C25 UNL     1       5.916  -1.728  -0.814  1.00  0.00     0.003 A 
HETATM   44  C26 UNL     1       5.540  -0.570  -1.498  1.00  0.00     0.043 A 
HETATM   45  C27 UNL     1       4.651   0.336  -0.911  1.00  0.00     0.127 A 
HETATM   46  F1  UNL     1       4.339   1.477  -1.578  1.00  0.00    -0.205 F 
ENDBRANCH  24  40
TORSDOF 1
