REMARK  2 active torsions:
REMARK  status: ('A' for Active; 'I' for Inactive)
REMARK       I    between atoms: N2_7  and  C6_8 
REMARK    1  A    between atoms: C6_8  and  C7_10 
REMARK    2  A    between atoms: C7_10  and  N3_11 
ROOT
HETATM    1  C1  UNL     1      -5.254   1.583   1.547  1.00  0.00     0.310 C 
HETATM    2  N1  UNL     1      -4.308   1.285   0.458  1.00  0.00     0.095 N 
HETATM    3  C2  UNL     1      -3.210   2.262   0.407  1.00  0.00     0.286 A 
HETATM    4  C3  UNL     1      -2.157   1.230   0.812  1.00  0.00     0.034 A 
HETATM    5  C4  UNL     1      -1.551   1.531   2.197  1.00  0.00     0.021 C 
HETATM    6  C5  UNL     1      -1.082   1.004  -0.279  1.00  0.00     0.139 C 
HETATM    7  N2  UNL     1      -0.262  -0.185   0.017  1.00  0.00    -0.346 N 
HETATM    8  C6  UNL     1       1.177  -0.106  -0.006  1.00  0.00     0.238 C 
HETATM    9  O1  UNL     1       1.853  -0.828   0.779  1.00  0.00    -0.272 OA
HETATM   10  C16 UNL     1      -0.901  -1.448   0.423  1.00  0.00     0.165 C 
HETATM   11  C17 UNL     1      -2.163  -1.701  -0.364  1.00  0.00    -0.032 A 
HETATM   12  C18 UNL     1      -2.181  -2.733  -1.319  1.00  0.00     0.009 A 
HETATM   13  C19 UNL     1      -3.340  -3.004  -2.049  1.00  0.00     0.001 A 
HETATM   14  C20 UNL     1      -4.493  -2.253  -1.831  1.00  0.00     0.001 A 
HETATM   15  C21 UNL     1      -4.487  -1.214  -0.899  1.00  0.00     0.010 A 
HETATM   16  C22 UNL     1      -3.316  -0.895  -0.180  1.00  0.00    -0.016 A 
HETATM   17  C23 UNL     1      -3.342   0.236   0.845  1.00  0.00     0.267 A 
ENDROOT
BRANCH   8  18
HETATM   18  C7  UNL     1       1.891   0.844  -0.931  1.00  0.00     0.235 C 
BRANCH  18  19
HETATM   19  N3  UNL     1       3.188   0.303  -1.340  1.00  0.00    -0.308 N 
HETATM   20  C8  UNL     1       3.398  -0.705  -2.330  1.00  0.00     0.229 A 
HETATM   21  O2  UNL     1       2.504  -1.077  -3.136  1.00  0.00    -0.273 OA
HETATM   22  C9  UNL     1       4.779  -1.287  -2.284  1.00  0.00     0.144 A 
HETATM   23  C10 UNL     1       5.341  -0.531  -1.123  1.00  0.00    -0.022 A 
HETATM   24  C11 UNL     1       6.605  -0.659  -0.546  1.00  0.00     0.010 A 
HETATM   25  C15 UNL     1       4.407   0.349  -0.609  1.00  0.00     0.044 A 
HETATM   26  C12 UNL     1       6.915   0.130   0.574  1.00  0.00     0.001 A 
HETATM   27  C13 UNL     1       5.961   1.022   1.102  1.00  0.00     0.002 A 
HETATM   28  C14 UNL     1       4.692   1.137   0.510  1.00  0.00     0.030 A 
ENDBRANCH  18  19
ENDBRANCH   8  18
TORSDOF 2
