REMARK  4 active torsions:
REMARK  status: ('A' for Active; 'I' for Inactive)
REMARK       I    between atoms: N1_8  and  C8_9 
REMARK    1  A    between atoms: C8_9  and  C9_11 
REMARK    2  A    between atoms: C9_11  and  C10_12 
REMARK    3  A    between atoms: C10_12  and  C11_13 
REMARK    4  A    between atoms: C11_13  and  C12_14 
ROOT
HETATM    1  C1  UNL     1      -4.425   4.313   0.159  1.00  0.00     0.048 C 
HETATM    2  C2  UNL     1      -3.784   3.061  -0.360  1.00  0.00    -0.060 A 
HETATM    3  C3  UNL     1      -4.284   2.434  -1.507  1.00  0.00     0.009 A 
HETATM    4  C4  UNL     1      -3.726   1.234  -1.952  1.00  0.00     0.039 A 
HETATM    5  C5  UNL     1      -2.674   0.623  -1.256  1.00  0.00     0.095 A 
HETATM    6  C6  UNL     1      -2.159   1.261  -0.097  1.00  0.00     0.071 A 
HETATM    7  C7  UNL     1      -2.727   2.468   0.342  1.00  0.00     0.039 A 
HETATM    8  N1  UNL     1      -1.054   0.725   0.646  1.00  0.00    -0.315 N 
HETATM    9  C8  UNL     1       0.270   1.253   0.391  1.00  0.00     0.224 C 
HETATM   10  O1  UNL     1       0.421   2.122  -0.513  1.00  0.00    -0.273 OA
HETATM   11  C16 UNL     1      -1.357  -0.172   1.770  1.00  0.00     0.132 C 
HETATM   12  C17 UNL     1      -1.132  -1.646   1.405  1.00  0.00     0.022 C 
HETATM   13  C18 UNL     1      -1.910  -2.086   0.158  1.00  0.00     0.028 C 
HETATM   14  C19 UNL     1      -1.314  -1.519  -1.143  1.00  0.00     0.176 C 
HETATM   15  O3  UNL     1      -2.210  -0.603  -1.767  1.00  0.00    -0.349 OA
ENDROOT
BRANCH   9  16
HETATM   16  C9  UNL     1       1.470   0.860   1.223  1.00  0.00     0.103 C 
BRANCH  16  17
HETATM   17  C10 UNL     1       2.798   0.906   0.441  1.00  0.00     0.010 C 
BRANCH  17  18
HETATM   18  C11 UNL     1       2.856  -0.056  -0.767  1.00  0.00     0.007 C 
BRANCH  18  19
HETATM   19  C12 UNL     1       2.926  -1.556  -0.384  1.00  0.00     0.011 C 
HETATM   20  C13 UNL     1       4.274  -1.961   0.166  1.00  0.00     0.033 C 
HETATM   21  C14 UNL     1       5.015  -2.507  -1.046  1.00  0.00     0.168 C 
HETATM   22  O2  UNL     1       4.119  -2.649  -2.127  1.00  0.00    -0.391 OA
HETATM   23  C15 UNL     1       2.824  -2.440  -1.618  1.00  0.00     0.172 C 
ENDBRANCH  18  19
ENDBRANCH  17  18
ENDBRANCH  16  17
ENDBRANCH   9  16
TORSDOF 4
