REMARK  2 active torsions:
REMARK  status: ('A' for Active; 'I' for Inactive)
REMARK       I    between atoms: C1_2  and  N1_3 
REMARK    1  A    between atoms: C1_2  and  C10_14 
REMARK    2  A    between atoms: N1_3  and  S1_4 
ROOT
HETATM    1  O1  UNL     1       0.466  -0.195   3.271  1.00  0.00    -0.265 OA
HETATM    2  C1  UNL     1       0.050  -0.312   2.088  1.00  0.00     0.287 C 
HETATM    3  N1  UNL     1      -1.237   0.224   1.753  1.00  0.00    -0.154 NA
ENDROOT
BRANCH   2   4
HETATM    4  C10 UNL     1       0.891  -1.028   1.108  1.00  0.00     0.059 A 
HETATM    5  C11 UNL     1       0.447  -2.272   0.651  1.00  0.00     0.134 A 
HETATM    6  N2  UNL     1       1.196  -2.991  -0.218  1.00  0.00    -0.271 NA
HETATM    7  C12 UNL     1       2.397  -2.550  -0.662  1.00  0.00     0.132 A 
HETATM    8  C13 UNL     1       2.917  -1.317  -0.229  1.00  0.00     0.035 A 
HETATM    9  C14 UNL     1       2.129  -0.508   0.645  1.00  0.00    -0.026 A 
HETATM   10  C19 UNL     1       4.270  -0.931  -0.708  1.00  0.00     0.161 C 
HETATM   11  C15 UNL     1       2.567   0.887   1.095  1.00  0.00     0.041 C 
HETATM   12  C16 UNL     1       3.277   1.698  -0.002  1.00  0.00     0.005 C 
HETATM   13  C17 UNL     1       4.790   1.432  -0.061  1.00  0.00     0.008 C 
HETATM   14  C18 UNL     1       5.163  -0.044   0.103  1.00  0.00     0.084 C 
HETATM   15  O3  UNL     1       4.687  -1.355  -1.821  1.00  0.00    -0.292 OA
ENDBRANCH   2   4
BRANCH   3  16
HETATM   16  S1  UNL     1      -1.746   0.560   0.298  1.00  0.00     0.081 S 
HETATM   17  O2  UNL     1      -0.706   0.356  -0.768  1.00  0.00    -0.243 OA
HETATM   18  C2  UNL     1      -2.417   2.210   0.227  1.00  0.00     0.129 A 
HETATM   19  C3  UNL     1      -3.944   2.085   0.021  1.00  0.00     0.054 A 
HETATM   20  C4  UNL     1      -4.279   0.638  -0.202  1.00  0.00    -0.037 A 
HETATM   21  C5  UNL     1      -5.559   0.162  -0.506  1.00  0.00     0.009 A 
HETATM   22  C9  UNL     1      -3.224  -0.244  -0.074  1.00  0.00     0.046 A 
HETATM   23  C6  UNL     1      -5.753  -1.216  -0.689  1.00  0.00     0.001 A 
HETATM   24  C7  UNL     1      -4.671  -2.104  -0.567  1.00  0.00     0.002 A 
HETATM   25  C8  UNL     1      -3.393  -1.617  -0.259  1.00  0.00     0.022 A 
ENDBRANCH   3  16
TORSDOF 2
