REMARK  3 active torsions:
REMARK  status: ('A' for Active; 'I' for Inactive)
REMARK    1  A    between atoms: O1_1  and  C1_2 
REMARK    2  A    between atoms: C1_2  and  C2_3 
REMARK    3  A    between atoms: C2_3  and  C3_6 
ROOT
HETATM    1  C1  UNL     1      -0.522   0.105  -1.029  1.00  0.00     0.156 C 
HETATM    2  C11 UNL     1      -0.399  -0.699   0.309  1.00  0.00     0.054 C 
HETATM    3  C12 UNL     1      -1.579  -1.615   0.757  1.00  0.00    -0.010 C 
HETATM    4  C13 UNL     1      -1.951  -1.292   2.203  1.00  0.00     0.005 C 
HETATM    5  C14 UNL     1      -2.855  -0.068   2.087  1.00  0.00     0.010 C 
HETATM    6  C15 UNL     1      -3.347  -0.058   0.627  1.00  0.00     0.019 C 
HETATM    7  C16 UNL     1      -2.885  -1.363   0.031  1.00  0.00     0.014 C 
HETATM    8  C17 UNL     1      -2.840   1.157  -0.142  1.00  0.00    -0.044 A 
HETATM    9  C18 UNL     1      -3.690   2.281  -0.053  1.00  0.00     0.008 A 
HETATM   10  C19 UNL     1      -3.427   3.447  -0.752  1.00  0.00     0.001 A 
HETATM   11  C20 UNL     1      -2.314   3.522  -1.567  1.00  0.00     0.001 A 
HETATM   12  C21 UNL     1      -1.434   2.447  -1.655  1.00  0.00     0.011 A 
HETATM   13  C22 UNL     1      -1.611   1.248  -0.906  1.00  0.00    -0.011 A 
ENDROOT
BRANCH   1  14
HETATM   14  O1  UNL     1      -0.871  -0.790  -2.057  1.00  0.00    -0.378 OA
HETATM   15  H1  UNL     1      -1.111  -0.259  -2.861  1.00  0.00     0.211 HD
ENDBRANCH   1  14
BRANCH   1  16
HETATM   16  C2  UNL     1       0.919   0.682  -1.382  1.00  0.00     0.308 C 
HETATM   17  F1  UNL     1       1.173   1.798  -0.600  1.00  0.00    -0.197 F 
HETATM   18  F2  UNL     1       0.958   1.092  -2.707  1.00  0.00    -0.197 F 
BRANCH  16  19
HETATM   19  C3  UNL     1       2.059  -0.327  -1.238  1.00  0.00     0.052 A 
HETATM   20  C4  UNL     1       2.253  -1.295  -2.245  1.00  0.00     0.016 A 
HETATM   21  C5  UNL     1       3.276  -2.241  -2.141  1.00  0.00     0.004 A 
HETATM   22  C6  UNL     1       4.108  -2.256  -1.021  1.00  0.00     0.040 A 
HETATM   23  C7  UNL     1       3.910  -1.331   0.004  1.00  0.00     0.102 A 
HETATM   24  C8  UNL     1       2.906  -0.355  -0.105  1.00  0.00     0.114 A 
HETATM   25  O3  UNL     1       4.703  -1.373   1.155  1.00  0.00    -0.346 OA
HETATM   26  O2  UNL     1       2.759   0.564   0.943  1.00  0.00    -0.345 OA
HETATM   27  C9  UNL     1       3.763   0.718   1.948  1.00  0.00     0.202 C 
HETATM   28  C10 UNL     1       4.338  -0.648   2.331  1.00  0.00     0.202 C 
ENDBRANCH  16  19
ENDBRANCH   1  16
TORSDOF 3
