REMARK  2 active torsions:
REMARK  status: ('A' for Active; 'I' for Inactive)
REMARK    1  A    between atoms: C6_7  and  C7_8 
REMARK    2  A    between atoms: C11_13  and  C12_14 
ROOT
HETATM    1  C1  UNL     1      -4.955   2.321   2.336  1.00  0.00     0.044 C 
HETATM    2  C2  UNL     1      -3.630   1.843   1.800  1.00  0.00    -0.076 C 
HETATM    3  C3  UNL     1      -2.526   2.571   2.061  1.00  0.00     0.057 C 
HETATM    4  C4  UNL     1      -1.135   2.313   1.614  1.00  0.00     0.172 C 
HETATM    5  O1  UNL     1      -0.320   3.275   1.651  1.00  0.00    -0.288 OA
HETATM    6  C5  UNL     1      -0.600   0.988   1.253  1.00  0.00     0.068 C 
HETATM    7  C6  UNL     1      -0.855   0.368   0.087  1.00  0.00    -0.006 C 
HETATM    8  C20 UNL     1      -1.882   0.887  -0.850  1.00  0.00     0.045 C 
HETATM    9  C21 UNL     1      -3.181   0.986  -0.489  1.00  0.00    -0.058 C 
HETATM   10  C22 UNL     1      -3.643   0.628   0.904  1.00  0.00     0.069 C 
HETATM   11  C23 UNL     1      -4.205   1.486  -1.491  1.00  0.00     0.055 C 
HETATM   12  C24 UNL     1      -3.628   2.637  -2.321  1.00  0.00     0.127 C 
HETATM   13  N1  UNL     1      -2.359   2.223  -2.918  1.00  0.00    -0.357 N 
HETATM   14  C25 UNL     1      -1.469   1.379  -2.183  1.00  0.00     0.252 C 
HETATM   15  O2  UNL     1      -0.352   1.063  -2.676  1.00  0.00    -0.268 OA
HETATM   16  H22 UNL     1      -2.091   2.572  -3.865  1.00  0.00     0.162 HD
ENDROOT
BRANCH   7  17
HETATM   17  C7  UNL     1      -0.106  -0.859  -0.277  1.00  0.00    -0.024 A 
HETATM   18  C8  UNL     1      -0.782  -1.972  -0.800  1.00  0.00     0.015 A 
HETATM   19  C9  UNL     1      -0.076  -3.127  -1.148  1.00  0.00     0.044 A 
HETATM   20  C10 UNL     1       1.312  -3.178  -0.996  1.00  0.00     0.127 A 
HETATM   21  F1  UNL     1       1.964  -4.330  -1.303  1.00  0.00    -0.205 F 
HETATM   22  C11 UNL     1       2.014  -2.062  -0.500  1.00  0.00     0.013 A 
HETATM   23  C19 UNL     1       1.294  -0.906  -0.144  1.00  0.00     0.027 A 
BRANCH  22  24
HETATM   24  C12 UNL     1       3.489  -2.085  -0.352  1.00  0.00    -0.022 A 
HETATM   25  C13 UNL     1       4.092  -1.598   0.824  1.00  0.00     0.019 A 
HETATM   26  C14 UNL     1       5.489  -1.571   0.953  1.00  0.00    -0.061 A 
HETATM   27  C15 UNL     1       6.120  -1.074   2.222  1.00  0.00     0.048 C 
HETATM   28  C16 UNL     1       6.289  -2.060  -0.091  1.00  0.00     0.007 A 
HETATM   29  C17 UNL     1       5.697  -2.547  -1.261  1.00  0.00     0.001 A 
HETATM   30  C18 UNL     1       4.305  -2.559  -1.392  1.00  0.00     0.012 A 
ENDBRANCH  22  24
ENDBRANCH   7  17
TORSDOF 2
