REMARK  2 active torsions:
REMARK  status: ('A' for Active; 'I' for Inactive)
REMARK    1  A    between atoms: C3_4  and  C4_5 
REMARK    2  A    between atoms: C7_9  and  N2_10 
ROOT
HETATM    1  C4  UNL     1       2.209  -1.371  -0.962  1.00  0.00     0.133 A 
HETATM    2  N1  UNL     1       2.604  -2.448  -0.232  1.00  0.00    -0.245 NA
HETATM    3  C5  UNL     1       1.702  -3.203   0.443  1.00  0.00     0.122 A 
HETATM    4  C6  UNL     1       0.349  -2.872   0.410  1.00  0.00     0.069 A 
HETATM    5  C7  UNL     1      -0.058  -1.751  -0.338  1.00  0.00     0.129 A 
HETATM    6  N3  UNL     1       0.892  -1.038  -1.002  1.00  0.00    -0.216 NA
ENDROOT
BRANCH   5   7
HETATM    7  N2  UNL     1      -1.445  -1.324  -0.395  1.00  0.00    -0.363 N 
HETATM    8  C8  UNL     1      -2.527  -2.128   0.184  1.00  0.00     0.151 C 
HETATM    9  C9  UNL     1      -2.622  -1.874   1.695  1.00  0.00     0.195 C 
HETATM   10  O2  UNL     1      -3.774  -1.108   2.045  1.00  0.00    -0.349 OA
HETATM   11  C10 UNL     1      -4.230   0.125   1.536  1.00  0.00     0.075 A 
HETATM   12  C11 UNL     1      -5.573   0.417   1.818  1.00  0.00     0.037 A 
HETATM   13  C15 UNL     1      -3.464   1.071   0.783  1.00  0.00    -0.023 A 
HETATM   14  C12 UNL     1      -6.180   1.578   1.343  1.00  0.00     0.003 A 
HETATM   15  C13 UNL     1      -5.451   2.477   0.573  1.00  0.00     0.001 A 
HETATM   16  C14 UNL     1      -4.109   2.227   0.294  1.00  0.00     0.010 A 
HETATM   17  C16 UNL     1      -1.995   0.926   0.455  1.00  0.00     0.061 C 
HETATM   18  C17 UNL     1      -1.773   0.052  -0.789  1.00  0.00     0.129 C 
ENDBRANCH   5   7
BRANCH   1  19
HETATM   19  C3  UNL     1       3.213  -0.489  -1.671  1.00  0.00     0.073 C 
HETATM   20  C2  UNL     1       4.607  -1.108  -1.840  1.00  0.00     0.091 C 
HETATM   21  C1  UNL     1       5.507   0.075  -1.881  1.00  0.00     0.128 C 
HETATM   22  O1  UNL     1       6.687   0.001  -2.188  1.00  0.00    -0.298 OA
HETATM   23  C22 UNL     1       4.848   1.356  -1.514  1.00  0.00     0.088 C 
HETATM   24  C18 UNL     1       3.467   0.897  -1.016  1.00  0.00    -0.023 A 
HETATM   25  C19 UNL     1       3.294   0.988   0.514  1.00  0.00     0.011 A 
HETATM   26  C21 UNL     1       2.344   1.924  -1.197  1.00  0.00     0.011 A 
HETATM   27  C20 UNL     1       2.156   1.984   0.315  1.00  0.00     0.002 A 
ENDBRANCH   1  19
TORSDOF 2
