REMARK  5 active torsions:
REMARK  status: ('A' for Active; 'I' for Inactive)
REMARK       I    between atoms: C1_2  and  N1_3 
REMARK    1  A    between atoms: C1_2  and  C22_27 
REMARK       I    between atoms: N1_3  and  C2_4 
REMARK    2  A    between atoms: C2_4  and  C3_6 
REMARK    3  A    between atoms: C24_29  and  C40_47 
REMARK    4  A    between atoms: C28_35  and  C29_36 
REMARK    5  A    between atoms: C34_41  and  C35_42 
ROOT
HETATM    1  O1  UNL     1      -0.987  -2.178   0.804  1.00  0.00    -0.268 OA
HETATM    2  C1  UNL     1      -1.384  -1.051   1.238  1.00  0.00     0.256 C 
HETATM    3  N1  UNL     1      -0.599  -0.375   2.218  1.00  0.00    -0.289 N 
HETATM    4  C2  UNL     1       0.779  -0.699   2.378  1.00  0.00     0.258 C 
HETATM    5  O2  UNL     1       1.218  -1.053   3.511  1.00  0.00    -0.267 OA
HETATM    6  H1  UNL     1      -0.902   0.550   2.603  1.00  0.00     0.172 HD
ENDROOT
BRANCH   2   7
HETATM    7  C22 UNL     1      -2.648  -0.480   0.682  1.00  0.00     0.031 C 
HETATM    8  C23 UNL     1      -3.608  -1.395   0.042  1.00  0.00     0.078 C 
HETATM    9  C24 UNL     1      -4.900  -1.212   0.356  1.00  0.00     0.031 C 
HETATM   10  C25 UNL     1      -5.376  -1.421   1.759  1.00  0.00     0.253 C 
HETATM   11  O4  UNL     1      -6.543  -1.933   1.901  1.00  0.00    -0.268 OA
HETATM   12  N3  UNL     1      -4.537  -1.166   2.915  1.00  0.00    -0.333 N 
HETATM   13  C26 UNL     1      -4.098   0.167   3.295  1.00  0.00     0.092 C 
HETATM   14  H15 UNL     1      -4.657  -1.789   3.766  1.00  0.00     0.168 HD
HETATM   15  C27 UNL     1      -3.417   0.996   2.473  1.00  0.00     0.030 C 
HETATM   16  C28 UNL     1      -3.126   0.706   1.065  1.00  0.00    -0.012 C 
BRANCH   9  17
HETATM   17  C40 UNL     1      -5.753  -0.488  -0.582  1.00  0.00    -0.013 C 
HETATM   18  C35 UNL     1      -5.968   0.938  -0.524  1.00  0.00    -0.018 C 
HETATM   19  C36 UNL     1      -7.288   1.370  -0.840  1.00  0.00     0.013 C 
HETATM   20  C37 UNL     1      -8.233   0.515  -1.386  1.00  0.00     0.001 C 
HETATM   21  C38 UNL     1      -7.881  -0.760  -1.760  1.00  0.00     0.001 C 
HETATM   22  C39 UNL     1      -6.656  -1.282  -1.346  1.00  0.00     0.013 C 
BRANCH  18  23
HETATM   23  C34 UNL     1      -4.837   1.951  -0.435  1.00  0.00    -0.030 A 
HETATM   24  C29 UNL     1      -3.496   1.724   0.065  1.00  0.00    -0.018 A 
HETATM   25  C30 UNL     1      -2.488   2.707  -0.151  1.00  0.00     0.009 A 
HETATM   26  C31 UNL     1      -2.750   3.917  -0.782  1.00  0.00    -0.025 A 
HETATM   27  C32 UNL     1      -4.053   4.161  -1.289  1.00  0.00     0.004 A 
HETATM   28  C33 UNL     1      -5.094   3.193  -1.070  1.00  0.00     0.065 A 
ENDBRANCH  18  23
ENDBRANCH   9  17
ENDBRANCH   2   7
BRANCH   4  29
HETATM   29  C3  UNL     1       1.637  -0.758   1.178  1.00  0.00     0.033 C 
HETATM   30  C4  UNL     1       1.438   0.205   0.190  1.00  0.00     0.018 C 
HETATM   31  C5  UNL     1       2.303   0.210  -0.899  1.00  0.00     0.014 C 
HETATM   32  C6  UNL     1       3.300  -0.758  -1.037  1.00  0.00    -0.009 C 
HETATM   33  C7  UNL     1       3.330  -1.867  -0.150  1.00  0.00     0.044 C 
HETATM   34  C21 UNL     1       4.358  -0.534  -2.057  1.00  0.00    -0.014 A 
HETATM   35  C8  UNL     1       2.472  -1.849   0.961  1.00  0.00     0.035 C 
HETATM   36  C9  UNL     1       4.240  -2.993  -0.368  1.00  0.00     0.257 C 
HETATM   37  O3  UNL     1       3.763  -4.133  -0.614  1.00  0.00    -0.267 OA
HETATM   38  N2  UNL     1       5.666  -2.839  -0.215  1.00  0.00    -0.322 N 
HETATM   39  C10 UNL     1       6.238  -1.679   0.373  1.00  0.00     0.046 A 
HETATM   40  H5  UNL     1       6.237  -3.701  -0.268  1.00  0.00     0.169 HD
HETATM   41  C11 UNL     1       6.929  -1.821   1.591  1.00  0.00     0.030 A 
HETATM   42  C15 UNL     1       6.187  -0.412  -0.257  1.00  0.00     0.002 A 
HETATM   43  C12 UNL     1       7.561  -0.725   2.192  1.00  0.00     0.002 A 
HETATM   44  C13 UNL     1       7.501   0.534   1.583  1.00  0.00     0.001 A 
HETATM   45  C14 UNL     1       6.821   0.695   0.369  1.00  0.00     0.014 A 
HETATM   46  C16 UNL     1       5.704  -0.257  -1.656  1.00  0.00    -0.013 A 
HETATM   47  C17 UNL     1       6.592   0.279  -2.608  1.00  0.00     0.013 A 
HETATM   48  C18 UNL     1       6.183   0.600  -3.896  1.00  0.00     0.001 A 
HETATM   49  C19 UNL     1       4.870   0.302  -4.294  1.00  0.00     0.001 A 
HETATM   50  C20 UNL     1       3.959  -0.251  -3.372  1.00  0.00     0.013 A 
ENDBRANCH   4  29
TORSDOF 5
