REMARK  6 active torsions:
REMARK  status: ('A' for Active; 'I' for Inactive)
REMARK       I    between atoms: C1_2  and  N1_3 
REMARK    1  A    between atoms: C1_2  and  C22_27 
REMARK       I    between atoms: N1_3  and  C2_4 
REMARK    2  A    between atoms: C2_4  and  C3_6 
REMARK    3  A    between atoms: C24_29  and  C44_50 
REMARK    4  A    between atoms: C25_30  and  C27_33 
REMARK    5  A    between atoms: C32_38  and  C33_39 
REMARK    6  A    between atoms: C38_44  and  C39_45 
ROOT
HETATM    1  O1  UNL     1       0.133  -0.142   1.193  1.00  0.00    -0.266 OA
HETATM    2  C1  UNL     1      -0.375  -0.099   0.043  1.00  0.00     0.277 C 
HETATM    3  N1  UNL     1       0.461  -0.216  -1.116  1.00  0.00    -0.287 N 
HETATM    4  C2  UNL     1       1.763  -0.801  -1.033  1.00  0.00     0.275 C 
HETATM    5  O2  UNL     1       1.976  -1.904  -1.607  1.00  0.00    -0.266 OA
HETATM    6  H1  UNL     1       0.094   0.076  -2.057  1.00  0.00     0.172 HD
ENDROOT
BRANCH   2   7
HETATM    7  C22 UNL     1      -1.804   0.201  -0.080  1.00  0.00     0.125 A 
HETATM    8  C23 UNL     1      -2.747  -0.797   0.175  1.00  0.00     0.050 A 
HETATM    9  C24 UNL     1      -4.102  -0.454   0.312  1.00  0.00    -0.010 A 
HETATM   10  C25 UNL     1      -4.483   0.905   0.196  1.00  0.00     0.004 A 
HETATM   11  C26 UNL     1      -3.506   1.856  -0.130  1.00  0.00     0.130 A 
HETATM   12  N3  UNL     1      -2.202   1.492  -0.236  1.00  0.00    -0.255 NA
BRANCH   9  13
HETATM   13  C44 UNL     1      -5.079  -1.509   0.700  1.00  0.00    -0.014 A 
HETATM   14  C39 UNL     1      -6.208  -1.826  -0.104  1.00  0.00    -0.014 A 
HETATM   15  C40 UNL     1      -7.073  -2.858   0.303  1.00  0.00     0.013 A 
HETATM   16  C41 UNL     1      -6.827  -3.570   1.482  1.00  0.00     0.001 A 
HETATM   17  C42 UNL     1      -5.716  -3.262   2.265  1.00  0.00     0.001 A 
HETATM   18  C43 UNL     1      -4.849  -2.238   1.880  1.00  0.00     0.013 A 
BRANCH  14  19
HETATM   19  C38 UNL     1      -6.512  -1.112  -1.360  1.00  0.00    -0.014 A 
HETATM   20  C33 UNL     1      -6.910   0.250  -1.362  1.00  0.00    -0.014 A 
HETATM   21  C34 UNL     1      -7.286   0.864  -2.565  1.00  0.00     0.013 A 
HETATM   22  C35 UNL     1      -7.283   0.134  -3.759  1.00  0.00     0.001 A 
HETATM   23  C36 UNL     1      -6.896  -1.208  -3.762  1.00  0.00     0.001 A 
HETATM   24  C37 UNL     1      -6.522  -1.833  -2.570  1.00  0.00     0.013 A 
BRANCH  20  25
HETATM   25  C32 UNL     1      -6.991   1.040  -0.110  1.00  0.00    -0.014 A 
HETATM   26  C27 UNL     1      -5.825   1.361   0.620  1.00  0.00    -0.013 A 
HETATM   27  C28 UNL     1      -5.937   2.131   1.789  1.00  0.00     0.013 A 
HETATM   28  C29 UNL     1      -7.185   2.570   2.240  1.00  0.00     0.001 A 
HETATM   29  C30 UNL     1      -8.336   2.266   1.512  1.00  0.00     0.001 A 
HETATM   30  C31 UNL     1      -8.241   1.506   0.344  1.00  0.00     0.013 A 
ENDBRANCH  20  25
ENDBRANCH  14  19
ENDBRANCH   9  13
ENDBRANCH   2   7
BRANCH   4  31
HETATM   31  C3  UNL     1       2.839  -0.133  -0.269  1.00  0.00     0.104 A 
HETATM   32  C4  UNL     1       3.972  -0.858   0.154  1.00  0.00     0.048 A 
HETATM   33  C5  UNL     1       4.988  -0.207   0.857  1.00  0.00    -0.011 A 
HETATM   34  C6  UNL     1       4.882   1.174   1.122  1.00  0.00     0.021 A 
HETATM   35  C21 UNL     1       6.202  -0.949   1.266  1.00  0.00    -0.014 A 
HETATM   36  C7  UNL     1       3.737   1.867   0.671  1.00  0.00     0.253 A 
HETATM   37  C8  UNL     1       6.006   1.910   1.830  1.00  0.00     0.050 C 
HETATM   38  O3  UNL     1       3.624   3.107   0.867  1.00  0.00    -0.268 OA
HETATM   39  N2  UNL     1       2.752   1.200   0.010  1.00  0.00    -0.319 N 
HETATM   40  H3  UNL     1       1.911   1.744  -0.303  1.00  0.00     0.169 HD
HETATM   41  C9  UNL     1       7.105   2.423   0.879  1.00  0.00     0.044 C 
HETATM   42  C10 UNL     1       7.305   1.661  -0.424  1.00  0.00    -0.047 A 
HETATM   43  C11 UNL     1       7.365   2.407  -1.620  1.00  0.00     0.008 A 
HETATM   44  C15 UNL     1       7.547   0.257  -0.482  1.00  0.00    -0.019 A 
HETATM   45  C12 UNL     1       7.616   1.783  -2.845  1.00  0.00     0.001 A 
HETATM   46  C13 UNL     1       7.828   0.403  -2.895  1.00  0.00     0.001 A 
HETATM   47  C14 UNL     1       7.795  -0.351  -1.723  1.00  0.00     0.013 A 
HETATM   48  C16 UNL     1       7.456  -0.635   0.703  1.00  0.00    -0.014 A 
HETATM   49  C17 UNL     1       8.605  -1.296   1.171  1.00  0.00     0.013 A 
HETATM   50  C18 UNL     1       8.517  -2.215   2.217  1.00  0.00     0.001 A 
HETATM   51  C19 UNL     1       7.273  -2.513   2.787  1.00  0.00     0.001 A 
HETATM   52  C20 UNL     1       6.121  -1.888   2.307  1.00  0.00     0.013 A 
ENDBRANCH   4  31
TORSDOF 6
