REMARK  3 active torsions:
REMARK  status: ('A' for Active; 'I' for Inactive)
REMARK    1  A    between atoms: C5_6  and  C6_7 
REMARK    2  A    between atoms: C13_16  and  O3_17 
REMARK    3  A    between atoms: C17_21  and  N2_22 
ROOT
HETATM    1  C6  UNL     1       1.137  -0.220  -0.099  1.00  0.00    -0.018 A 
HETATM    2  C7  UNL     1       0.443  -1.088   0.753  1.00  0.00     0.013 A 
HETATM    3  C8  UNL     1      -0.944  -1.006   0.867  1.00  0.00     0.015 A 
HETATM    4  C9  UNL     1      -1.678  -0.056   0.132  1.00  0.00     0.002 A 
HETATM    5  C10 UNL     1      -0.982   0.806  -0.755  1.00  0.00     0.046 A 
HETATM    6  C11 UNL     1       0.417   0.729  -0.840  1.00  0.00     0.043 A 
HETATM    7  N1  UNL     1      -1.656   1.788  -1.559  1.00  0.00    -0.324 N 
HETATM    8  C12 UNL     1      -2.828   1.497  -2.331  1.00  0.00     0.255 C 
HETATM    9  O2  UNL     1      -3.243   2.350  -3.161  1.00  0.00    -0.270 OA
HETATM   10  C13 UNL     1      -3.562   0.193  -2.145  1.00  0.00     0.244 C 
HETATM   11  C14 UNL     1      -4.074   0.118  -0.719  1.00  0.00    -0.009 A 
HETATM   12  C15 UNL     1      -5.454   0.168  -0.434  1.00  0.00     0.013 A 
HETATM   13  C16 UNL     1      -5.913   0.146   0.883  1.00  0.00     0.029 A 
HETATM   14  C17 UNL     1      -5.008   0.082   1.944  1.00  0.00     0.026 A 
HETATM   15  C18 UNL     1      -3.636   0.030   1.679  1.00  0.00     0.042 A 
HETATM   16  C19 UNL     1      -3.151   0.041   0.356  1.00  0.00    -0.012 A 
HETATM   17  H8  UNL     1      -1.153   2.680  -1.770  1.00  0.00     0.169 HD
ENDROOT
BRANCH   1  18
HETATM   18  C5  UNL     1       2.617  -0.297  -0.203  1.00  0.00     0.040 A 
HETATM   19  C4  UNL     1       3.266  -0.351  -1.447  1.00  0.00     0.186 A 
HETATM   20  C3  UNL     1       4.657  -0.407  -1.500  1.00  0.00     0.080 A 
HETATM   21  O1  UNL     1       2.607  -0.368  -2.521  1.00  0.00    -0.287 OA
HETATM   22  C2  UNL     1       5.407  -0.418  -0.315  1.00  0.00     0.010 A 
HETATM   23  C1  UNL     1       6.912  -0.484  -0.409  1.00  0.00     0.068 C 
HETATM   24  N3  UNL     1       4.764  -0.395   0.901  1.00  0.00    -0.364 N 
HETATM   25  C20 UNL     1       3.397  -0.326   0.963  1.00  0.00     0.106 A 
HETATM   26  C21 UNL     1       5.526  -0.411   2.159  1.00  0.00     0.155 C 
ENDBRANCH   1  18
BRANCH  10  27
HETATM   27  O3  UNL     1      -4.577   0.009  -3.106  1.00  0.00    -0.381 OA
HETATM   28  H10 UNL     1      -5.153   0.818  -3.117  1.00  0.00     0.211 HD
ENDBRANCH  10  27
BRANCH  14  29
HETATM   29  N2  UNL     1      -5.482   0.070   3.294  1.00  0.00    -0.399 N 
HETATM   30  H13 UNL     1      -6.504   0.109   3.502  1.00  0.00     0.156 HD
HETATM   31  H14 UNL     1      -4.813   0.022   4.095  1.00  0.00     0.156 HD
ENDBRANCH  14  29
TORSDOF 3
