REMARK  2 active torsions:
REMARK  status: ('A' for Active; 'I' for Inactive)
REMARK       I    between atoms: C1_2  and  N1_3 
REMARK       I    between atoms: C1_2  and  N2_19 
REMARK    1  A    between atoms: N1_3  and  C2_4 
REMARK    2  A    between atoms: N2_19  and  C17_20 
ROOT
HETATM    1  O1  UNL     1       0.837   0.368  -1.327  1.00  0.00    -0.247 OA
HETATM    2  C1  UNL     1       0.570   0.913  -0.221  1.00  0.00     0.321 C 
HETATM    3  N1  UNL     1      -0.788   0.988   0.237  1.00  0.00    -0.330 N 
HETATM    4  N2  UNL     1       1.617   1.492   0.572  1.00  0.00    -0.309 N 
HETATM    5  H1  UNL     1      -0.945   1.342   1.208  1.00  0.00     0.165 HD
HETATM    6  H15 UNL     1       1.343   2.185   1.305  1.00  0.00     0.170 HD
ENDROOT
BRANCH   3   7
HETATM    7  C2  UNL     1      -1.901   0.327  -0.466  1.00  0.00     0.154 C 
HETATM    8  C3  UNL     1      -2.058  -1.106   0.034  1.00  0.00    -0.025 A 
HETATM    9  C4  UNL     1      -1.486  -1.539   1.253  1.00  0.00     0.010 A 
HETATM   10  C8  UNL     1      -2.784  -2.037  -0.737  1.00  0.00    -0.049 A 
HETATM   11  C5  UNL     1      -1.604  -2.867   1.666  1.00  0.00     0.001 A 
HETATM   12  C6  UNL     1      -2.305  -3.783   0.884  1.00  0.00     0.001 A 
HETATM   13  C7  UNL     1      -2.903  -3.370  -0.305  1.00  0.00     0.007 A 
HETATM   14  C9  UNL     1      -3.565  -1.574  -1.932  1.00  0.00     0.043 C 
HETATM   15  C10 UNL     1      -4.755  -0.738  -1.466  1.00  0.00     0.043 C 
HETATM   16  C11 UNL     1      -4.472   0.639  -0.872  1.00  0.00    -0.049 A 
HETATM   17  C12 UNL     1      -5.611   1.463  -0.765  1.00  0.00     0.007 A 
HETATM   18  C16 UNL     1      -3.209   1.130  -0.387  1.00  0.00    -0.025 A 
HETATM   19  C13 UNL     1      -5.526   2.759  -0.269  1.00  0.00     0.001 A 
HETATM   20  C14 UNL     1      -4.300   3.270   0.124  1.00  0.00     0.001 A 
HETATM   21  C15 UNL     1      -3.156   2.479   0.053  1.00  0.00     0.010 A 
ENDBRANCH   3   7
BRANCH   4  22
HETATM   22  C17 UNL     1       3.018   1.255   0.353  1.00  0.00     0.038 A 
HETATM   23  C18 UNL     1       3.939   2.274   0.640  1.00  0.00     0.030 A 
HETATM   24  C19 UNL     1       5.308   2.068   0.458  1.00  0.00     0.016 A 
HETATM   25  C20 UNL     1       5.778   0.830   0.000  1.00  0.00    -0.009 A 
HETATM   26  C21 UNL     1       7.146   0.602  -0.188  1.00  0.00     0.019 A 
HETATM   27  C24 UNL     1       4.864  -0.213  -0.271  1.00  0.00     0.047 A 
HETATM   28  C22 UNL     1       7.586  -0.644  -0.635  1.00  0.00     0.075 A 
HETATM   29  C23 UNL     1       6.654  -1.654  -0.890  1.00  0.00     0.245 A 
HETATM   30  O2  UNL     1       7.048  -2.781  -1.294  1.00  0.00    -0.268 OA
HETATM   31  N3  UNL     1       5.324  -1.424  -0.705  1.00  0.00    -0.323 N 
HETATM   32  H20 UNL     1       4.647  -2.196  -0.903  1.00  0.00     0.169 HD
HETATM   33  C25 UNL     1       3.490   0.004  -0.085  1.00  0.00     0.060 A 
ENDBRANCH   4  22
TORSDOF 2
