REMARK  4 active torsions:
REMARK  status: ('A' for Active; 'I' for Inactive)
REMARK    1  A    between atoms: C8_8  and  N1_9 
REMARK       I    between atoms: N1_9  and  C9_10 
REMARK    2  A    between atoms: C9_10  and  C10_12 
REMARK    3  A    between atoms: C13_15  and  C14_16 
REMARK    4  A    between atoms: C16_20  and  O2_21 
ROOT
HETATM    1  C1  UNL     1      -0.376   0.293  -4.975  1.00  0.00     0.048 C 
HETATM    2  C2  UNL     1      -0.765   0.060  -3.544  1.00  0.00    -0.061 A 
HETATM    3  C3  UNL     1      -1.676  -0.947  -3.204  1.00  0.00     0.007 A 
HETATM    4  C4  UNL     1      -2.027  -1.155  -1.872  1.00  0.00     0.013 A 
HETATM    5  C5  UNL     1      -1.477  -0.361  -0.853  1.00  0.00    -0.017 A 
HETATM    6  C6  UNL     1      -0.543   0.660  -1.180  1.00  0.00    -0.024 A 
HETATM    7  C7  UNL     1      -0.199   0.847  -2.533  1.00  0.00     0.017 A 
HETATM    8  C8  UNL     1       0.189   1.497  -0.133  1.00  0.00     0.123 C 
HETATM    9  C17 UNL     1      -0.705   2.280   0.863  1.00  0.00     0.069 C 
HETATM   10  C18 UNL     1      -2.099   2.568   0.352  1.00  0.00    -0.045 A 
HETATM   11  C19 UNL     1      -2.374   3.784  -0.292  1.00  0.00     0.008 A 
HETATM   12  C20 UNL     1      -3.673   4.082  -0.712  1.00  0.00     0.001 A 
HETATM   13  C21 UNL     1      -4.706   3.167  -0.499  1.00  0.00     0.001 A 
HETATM   14  C22 UNL     1      -4.442   1.943   0.119  1.00  0.00     0.013 A 
HETATM   15  C23 UNL     1      -3.139   1.627   0.535  1.00  0.00    -0.019 A 
HETATM   16  C24 UNL     1      -2.856   0.307   1.144  1.00  0.00    -0.014 A 
HETATM   17  C25 UNL     1      -3.431  -0.022   2.381  1.00  0.00     0.013 A 
HETATM   18  C26 UNL     1      -3.106  -1.227   3.008  1.00  0.00     0.001 A 
HETATM   19  C27 UNL     1      -2.218  -2.116   2.401  1.00  0.00     0.001 A 
HETATM   20  C28 UNL     1      -1.653  -1.807   1.163  1.00  0.00     0.013 A 
HETATM   21  C29 UNL     1      -1.962  -0.595   0.524  1.00  0.00    -0.014 A 
ENDROOT
BRANCH   8  22
HETATM   22  N1  UNL     1       1.120   0.635   0.601  1.00  0.00    -0.348 N 
HETATM   23  C9  UNL     1       2.498   0.476   0.224  1.00  0.00     0.255 C 
HETATM   24  O1  UNL     1       3.018   1.242  -0.631  1.00  0.00    -0.268 OA
HETATM   25  H8  UNL     1       0.735  -0.006   1.333  1.00  0.00     0.163 HD
BRANCH  23  26
HETATM   26  C10 UNL     1       3.306  -0.607   0.822  1.00  0.00     0.065 A 
HETATM   27  C11 UNL     1       2.767  -1.904   0.870  1.00  0.00     0.020 A 
HETATM   28  C12 UNL     1       3.509  -2.963   1.397  1.00  0.00     0.014 A 
HETATM   29  C13 UNL     1       4.805  -2.746   1.884  1.00  0.00     0.008 A 
HETATM   30  C15 UNL     1       5.345  -1.451   1.847  1.00  0.00     0.050 A 
HETATM   31  C16 UNL     1       4.607  -0.380   1.330  1.00  0.00     0.082 A 
BRANCH  29  32
HETATM   32  C14 UNL     1       5.594  -3.889   2.460  1.00  0.00     0.386 C 
HETATM   33  F1  UNL     1       5.679  -4.915   1.538  1.00  0.00    -0.209 F 
HETATM   34  F2  UNL     1       4.967  -4.350   3.604  1.00  0.00    -0.209 F 
ENDBRANCH  29  32
BRANCH  31  35
HETATM   35  O2  UNL     1       5.182   0.893   1.366  1.00  0.00    -0.360 OA
HETATM   36  H13 UNL     1       4.687   1.736   1.105  1.00  0.00     0.217 HD
ENDBRANCH  31  35
ENDBRANCH  23  26
ENDBRANCH   8  22
TORSDOF 4
