REMARK  3 active torsions:
REMARK  status: ('A' for Active; 'I' for Inactive)
REMARK    1  A    between atoms: C2_2  and  C3_3 
REMARK    2  A    between atoms: C2_2  and  N2_18 
REMARK       I    between atoms: N2_18  and  C16_19 
REMARK    3  A    between atoms: C16_19  and  C17_21 
ROOT
HETATM    1  N2  UNL     1       0.475  -0.854  -2.053  1.00  0.00    -0.349 N 
HETATM    2  C16 UNL     1      -0.684  -0.296  -2.699  1.00  0.00     0.252 C 
HETATM    3  O2  UNL     1      -0.607   0.061  -3.909  1.00  0.00    -0.268 OA
HETATM    4  H13 UNL     1       0.354  -1.435  -1.192  1.00  0.00     0.163 HD
ENDROOT
BRANCH   1   5
HETATM    5  C2  UNL     1       1.810  -0.801  -2.655  1.00  0.00     0.114 C 
HETATM    6  C1  UNL     1       2.139  -2.147  -3.316  1.00  0.00     0.037 C 
BRANCH   5   7
HETATM    7  C3  UNL     1       2.821  -0.358  -1.609  1.00  0.00    -0.035 A 
HETATM    8  C4  UNL     1       2.980   1.012  -1.369  1.00  0.00     0.010 A 
HETATM    9  C5  UNL     1       3.860   1.472  -0.389  1.00  0.00     0.014 A 
HETATM   10  C6  UNL     1       4.618   0.569   0.392  1.00  0.00    -0.008 A 
HETATM   11  C7  UNL     1       4.443  -0.823   0.167  1.00  0.00     0.044 A 
HETATM   12  C15 UNL     1       5.540   0.998   1.393  1.00  0.00     0.002 A 
HETATM   13  C8  UNL     1       3.532  -1.271  -0.812  1.00  0.00     0.027 A 
HETATM   14  C9  UNL     1       5.186  -1.746   0.927  1.00  0.00     0.257 A 
HETATM   15  O1  UNL     1       5.045  -2.988   0.748  1.00  0.00    -0.267 OA
HETATM   16  N1  UNL     1       6.070  -1.312   1.863  1.00  0.00    -0.322 N 
HETATM   17  C10 UNL     1       6.263   0.011   2.118  1.00  0.00     0.046 A 
HETATM   18  H8  UNL     1       6.610  -2.028   2.405  1.00  0.00     0.169 HD
HETATM   19  C11 UNL     1       7.186   0.396   3.107  1.00  0.00     0.030 A 
HETATM   20  C12 UNL     1       7.397   1.744   3.392  1.00  0.00     0.002 A 
HETATM   21  C13 UNL     1       6.693   2.722   2.692  1.00  0.00     0.001 A 
HETATM   22  C14 UNL     1       5.773   2.361   1.703  1.00  0.00     0.014 A 
ENDBRANCH   5   7
ENDBRANCH   1   5
BRANCH   2  23
HETATM   23  C17 UNL     1      -1.977  -0.151  -1.982  1.00  0.00     0.034 A 
HETATM   24  C18 UNL     1      -3.161   0.033  -2.711  1.00  0.00     0.018 A 
HETATM   25  C19 UNL     1      -4.381   0.207  -2.058  1.00  0.00     0.015 A 
HETATM   26  C20 UNL     1      -4.460   0.186  -0.654  1.00  0.00     0.002 A 
HETATM   27  C21 UNL     1      -3.274  -0.045   0.094  1.00  0.00     0.046 A 
HETATM   28  C30 UNL     1      -5.783   0.434  -0.007  1.00  0.00    -0.017 A 
HETATM   29  C22 UNL     1      -2.046  -0.172  -0.578  1.00  0.00     0.047 A 
HETATM   30  N3  UNL     1      -3.274  -0.127   1.531  1.00  0.00    -0.326 N 
HETATM   31  C23 UNL     1      -4.249  -0.872   2.275  1.00  0.00     0.226 C 
HETATM   32  H17 UNL     1      -2.415   0.180   2.046  1.00  0.00     0.169 HD
HETATM   33  O3  UNL     1      -4.124  -0.986   3.526  1.00  0.00    -0.273 OA
HETATM   34  C24 UNL     1      -5.422  -1.495   1.590  1.00  0.00     0.142 C 
HETATM   35  C25 UNL     1      -6.273  -0.397   1.028  1.00  0.00    -0.038 A 
HETATM   36  C26 UNL     1      -7.547  -0.153   1.577  1.00  0.00     0.008 A 
HETATM   37  C27 UNL     1      -8.327   0.904   1.107  1.00  0.00     0.001 A 
HETATM   38  C28 UNL     1      -7.842   1.737   0.100  1.00  0.00     0.001 A 
HETATM   39  C29 UNL     1      -6.580   1.506  -0.456  1.00  0.00     0.013 A 
ENDBRANCH   2  23
TORSDOF 3
