REMARK  4 active torsions:
REMARK  status: ('A' for Active; 'I' for Inactive)
REMARK    1  A    between atoms: C1_2  and  C2_3 
REMARK       I    between atoms: C1_2  and  N3_24 
REMARK    2  A    between atoms: C3_4  and  N1_5 
REMARK    3  A    between atoms: C21_28  and  C22_29 
REMARK    4  A    between atoms: C22_29  and  O2_30 
ROOT
HETATM    1  C2  UNL     1       1.097  -0.481  -1.091  1.00  0.00     0.116 A 
HETATM    2  C3  UNL     1      -0.202  -0.499  -0.623  1.00  0.00     0.066 A 
HETATM    3  C16 UNL     1      -0.626  -1.813  -0.612  1.00  0.00     0.121 A 
HETATM    4  N2  UNL     1       0.361  -2.602  -1.077  1.00  0.00    -0.340 N 
HETATM    5  C17 UNL     1       1.403  -1.801  -1.371  1.00  0.00     0.206 A 
HETATM    6  F3  UNL     1       2.551  -2.244  -1.941  1.00  0.00    -0.185 F 
HETATM    7  H14 UNL     1       0.317  -3.637  -1.206  1.00  0.00     0.167 HD
ENDROOT
BRANCH   2   8
HETATM    8  N1  UNL     1      -0.964   0.636  -0.197  1.00  0.00    -0.374 N 
HETATM    9  C4  UNL     1      -1.178   0.856   1.235  1.00  0.00     0.162 C 
HETATM   10  C5  UNL     1      -2.253  -0.071   1.743  1.00  0.00    -0.034 A 
HETATM   11  C6  UNL     1      -1.916  -1.070   2.673  1.00  0.00     0.009 A 
HETATM   12  C10 UNL     1      -3.582   0.007   1.255  1.00  0.00    -0.049 A 
HETATM   13  C7  UNL     1      -2.877  -1.977   3.119  1.00  0.00     0.001 A 
HETATM   14  C8  UNL     1      -4.185  -1.902   2.641  1.00  0.00     0.001 A 
HETATM   15  C9  UNL     1      -4.537  -0.918   1.715  1.00  0.00     0.007 A 
HETATM   16  C11 UNL     1      -3.998   1.058   0.248  1.00  0.00     0.056 C 
HETATM   17  C12 UNL     1      -3.248   0.885  -1.089  1.00  0.00     0.051 A 
HETATM   18  C13 UNL     1      -1.785   1.355  -1.172  1.00  0.00     0.139 C 
HETATM   19  C14 UNL     1      -4.078   1.157  -2.349  1.00  0.00     0.097 A 
HETATM   20  C15 UNL     1      -3.678  -0.268  -1.991  1.00  0.00     0.254 A 
HETATM   21  F1  UNL     1      -2.725  -0.823  -2.827  1.00  0.00    -0.205 F 
HETATM   22  F2  UNL     1      -4.723  -1.064  -1.557  1.00  0.00    -0.205 F 
ENDBRANCH   2   8
BRANCH   1  23
HETATM   23  C1  UNL     1       1.950   0.701  -1.296  1.00  0.00     0.261 C 
HETATM   24  O1  UNL     1       1.436   1.750  -1.769  1.00  0.00    -0.267 OA
HETATM   25  N3  UNL     1       3.348   0.688  -0.953  1.00  0.00    -0.341 N 
HETATM   26  C18 UNL     1       4.308   1.587  -1.572  1.00  0.00     0.127 C 
HETATM   27  C21 UNL     1       3.928  -0.100   0.129  1.00  0.00     0.111 C 
HETATM   28  C19 UNL     1       5.601   1.419  -0.785  1.00  0.00     0.022 C 
HETATM   29  C20 UNL     1       5.438   0.132   0.017  1.00  0.00     0.029 C 
BRANCH  27  30
HETATM   30  C22 UNL     1       3.372   0.367   1.487  1.00  0.00     0.189 C 
BRANCH  30  31
HETATM   31  O2  UNL     1       3.899  -0.406   2.531  1.00  0.00    -0.399 OA
HETATM   32  H24 UNL     1       3.440  -1.286   2.492  1.00  0.00     0.209 HD
ENDBRANCH  30  31
ENDBRANCH  27  30
ENDBRANCH   1  23
TORSDOF 4
