REMARK  3 active torsions:
REMARK  status: ('A' for Active; 'I' for Inactive)
REMARK    1  A    between atoms: C1_2  and  C2_3 
REMARK    2  A    between atoms: C1_2  and  C11_14 
REMARK    3  A    between atoms: C15_18  and  C16_19 
ROOT
HETATM    1  C11 UNL     1       2.261   0.247   1.040  1.00  0.00     0.017 A 
HETATM    2  C12 UNL     1       2.371   1.623   0.763  1.00  0.00     0.015 A 
HETATM    3  C13 UNL     1       1.250   2.452   0.837  1.00  0.00     0.002 A 
HETATM    4  C14 UNL     1       0.009   1.922   1.193  1.00  0.00     0.012 A 
HETATM    5  C15 UNL     1      -0.117   0.555   1.479  1.00  0.00    -0.025 A 
HETATM    6  C36 UNL     1       1.013  -0.275   1.421  1.00  0.00     0.028 A 
ENDROOT
BRANCH   5   7
HETATM    7  C16 UNL     1      -1.430   0.010   1.870  1.00  0.00    -0.019 A 
HETATM    8  C17 UNL     1      -1.899   0.276   3.164  1.00  0.00     0.013 A 
HETATM    9  C18 UNL     1      -3.164  -0.152   3.562  1.00  0.00     0.002 A 
HETATM   10  C19 UNL     1      -3.995  -0.813   2.659  1.00  0.00     0.013 A 
HETATM   11  C20 UNL     1      -3.557  -1.075   1.355  1.00  0.00    -0.018 A 
HETATM   12  C21 UNL     1      -2.248  -0.706   0.959  1.00  0.00    -0.036 A 
HETATM   13  C35 UNL     1      -4.527  -1.608   0.372  1.00  0.00    -0.014 A 
HETATM   14  C22 UNL     1      -1.767  -1.051  -0.443  1.00  0.00     0.045 C 
HETATM   15  C23 UNL     1      -2.215  -0.074  -1.555  1.00  0.00     0.044 C 
HETATM   16  C24 UNL     1      -3.235   0.968  -1.142  1.00  0.00    -0.047 A 
HETATM   17  C25 UNL     1      -2.862   2.325  -1.134  1.00  0.00     0.008 A 
HETATM   18  C29 UNL     1      -4.567   0.617  -0.807  1.00  0.00    -0.019 A 
HETATM   19  C26 UNL     1      -3.790   3.315  -0.813  1.00  0.00     0.001 A 
HETATM   20  C27 UNL     1      -5.104   2.966  -0.495  1.00  0.00     0.001 A 
HETATM   21  C28 UNL     1      -5.491   1.625  -0.491  1.00  0.00     0.013 A 
HETATM   22  C30 UNL     1      -4.994  -0.796  -0.688  1.00  0.00    -0.014 A 
HETATM   23  C31 UNL     1      -5.942  -1.311  -1.586  1.00  0.00     0.013 A 
HETATM   24  C32 UNL     1      -6.408  -2.621  -1.446  1.00  0.00     0.001 A 
HETATM   25  C33 UNL     1      -5.942  -3.423  -0.400  1.00  0.00     0.001 A 
HETATM   26  C34 UNL     1      -5.009  -2.918   0.509  1.00  0.00     0.013 A 
ENDBRANCH   5   7
BRANCH   1  27
HETATM   27  C1  UNL     1       3.450  -0.637   0.982  1.00  0.00     0.208 C 
HETATM   28  O1  UNL     1       3.530  -1.607   1.784  1.00  0.00    -0.285 OA
BRANCH  27  29
HETATM   29  C2  UNL     1       4.555  -0.403   0.023  1.00  0.00     0.087 A 
HETATM   30  C3  UNL     1       5.868  -0.753   0.371  1.00  0.00     0.046 A 
HETATM   31  C4  UNL     1       6.913  -0.515  -0.528  1.00  0.00    -0.018 A 
HETATM   32  C5  UNL     1       6.634   0.065  -1.787  1.00  0.00     0.042 A 
HETATM   33  C10 UNL     1       8.236  -0.842  -0.187  1.00  0.00     0.012 A 
HETATM   34  C6  UNL     1       5.301   0.380  -2.108  1.00  0.00     0.257 A 
HETATM   35  C7  UNL     1       7.691   0.310  -2.685  1.00  0.00     0.018 A 
HETATM   36  O2  UNL     1       5.014   0.888  -3.227  1.00  0.00    -0.267 OA
HETATM   37  N1  UNL     1       4.306   0.135  -1.209  1.00  0.00    -0.319 N 
HETATM   38  H2  UNL     1       3.323   0.356  -1.488  1.00  0.00     0.169 HD
HETATM   39  C8  UNL     1       9.004  -0.020  -2.332  1.00  0.00     0.001 A 
HETATM   40  C9  UNL     1       9.275  -0.593  -1.087  1.00  0.00     0.001 A 
ENDBRANCH  27  29
ENDBRANCH   1  27
TORSDOF 3
