REMARK  2 active torsions:
REMARK  status: ('A' for Active; 'I' for Inactive)
REMARK    1  A    between atoms: N1_4  and  S1_5 
REMARK    2  A    between atoms: S1_5  and  C4_8 
ROOT
HETATM    1  C4  UNL     1       0.202  -0.265   1.927  1.00  0.00     0.075 A 
HETATM    2  C5  UNL     1       0.570   1.069   2.199  1.00  0.00     0.027 A 
HETATM    3  C6  UNL     1       1.759   1.600   1.677  1.00  0.00     0.032 A 
HETATM    4  C7  UNL     1       2.568   0.780   0.884  1.00  0.00     0.046 A 
HETATM    5  C8  UNL     1       2.220  -0.526   0.627  1.00  0.00    -0.015 A 
HETATM    6  C9  UNL     1       1.039  -1.073   1.137  1.00  0.00     0.035 A 
HETATM    7  C10 UNL     1       3.249  -1.187  -0.241  1.00  0.00     0.025 A 
HETATM    8  C11 UNL     1       3.871  -2.392   0.487  1.00  0.00     0.027 C 
HETATM    9  C12 UNL     1       2.645  -1.591  -1.595  1.00  0.00     0.027 C 
HETATM   10  C13 UNL     1       4.241  -0.043  -0.399  1.00  0.00     0.029 A 
HETATM   11  C14 UNL     1       5.430  -0.186  -0.998  1.00  0.00     0.026 C 
HETATM   12  C15 UNL     1       6.531   0.789  -0.980  1.00  0.00     0.002 C 
HETATM   13  C16 UNL     1       6.444   2.112  -0.813  1.00  0.00     0.001 C 
HETATM   14  C17 UNL     1       5.220   2.911  -0.655  1.00  0.00     0.018 C 
HETATM   15  C18 UNL     1       4.052   2.492  -0.172  1.00  0.00     0.097 C 
HETATM   16  N2  UNL     1       3.792   1.149   0.256  1.00  0.00    -0.324 N 
ENDROOT
BRANCH   1  17
HETATM   17  S1  UNL     1      -1.314  -0.912   2.557  1.00  0.00     0.244 S 
HETATM   18  O1  UNL     1      -1.649  -0.224   3.852  1.00  0.00    -0.206 OA
HETATM   19  O2  UNL     1      -1.149  -2.379   2.841  1.00  0.00    -0.206 OA
BRANCH  17  20
HETATM   20  N1  UNL     1      -2.621  -0.681   1.417  1.00  0.00    -0.200 NA
HETATM   21  C3  UNL     1      -2.333  -1.373   0.147  1.00  0.00     0.132 C 
HETATM   22  C2  UNL     1      -3.621  -2.025  -0.370  1.00  0.00     0.091 C 
HETATM   23  C1  UNL     1      -3.569  -2.247  -1.884  1.00  0.00     0.033 C 
HETATM   24  N3  UNL     1      -4.806  -1.241  -0.013  1.00  0.00    -0.384 N 
HETATM   25  C25 UNL     1      -4.911   0.168  -0.263  1.00  0.00     0.035 A 
HETATM   26  H27 UNL     1      -5.696  -1.775   0.116  1.00  0.00     0.160 HD
HETATM   27  C20 UNL     1      -3.978   1.105   0.260  1.00  0.00    -0.018 A 
HETATM   28  C24 UNL     1      -5.987   0.623  -1.040  1.00  0.00     0.030 A 
HETATM   29  C19 UNL     1      -2.837   0.762   1.205  1.00  0.00     0.148 C 
HETATM   30  C21 UNL     1      -4.147   2.468  -0.049  1.00  0.00     0.011 A 
HETATM   31  C22 UNL     1      -5.210   2.899  -0.843  1.00  0.00     0.001 A 
HETATM   32  C23 UNL     1      -6.132   1.978  -1.334  1.00  0.00     0.002 A 
ENDBRANCH  17  20
ENDBRANCH   1  17
TORSDOF 2
