REMARK  6 active torsions:
REMARK  status: ('A' for Active; 'I' for Inactive)
REMARK    1  A    between atoms: C1_2  and  C2_3 
REMARK       I    between atoms: C1_2  and  N2_16 
REMARK    2  A    between atoms: C2_3  and  C3_4 
REMARK    3  A    between atoms: C3_4  and  C4_5 
REMARK    4  A    between atoms: C7_8  and  C8_9 
REMARK    5  A    between atoms: N2_16  and  C10_17 
REMARK    6  A    between atoms: C10_17  and  C11_18 
ROOT
HETATM    1  C2  UNL     1      -1.604   1.369   0.218  1.00  0.00     0.107 C 
ENDROOT
BRANCH   1   2
HETATM    2  C1  UNL     1      -0.182   1.773  -0.031  1.00  0.00     0.217 C 
HETATM    3  O1  UNL     1       0.063   2.770  -0.762  1.00  0.00    -0.274 OA
HETATM    4  N2  UNL     1       0.890   1.004   0.528  1.00  0.00    -0.361 N 
HETATM    5  H8  UNL     1       0.651   0.184   1.131  1.00  0.00     0.162 HD
BRANCH   4   6
HETATM    6  C10 UNL     1       2.290   1.335   0.253  1.00  0.00     0.127 C 
BRANCH   6   7
HETATM    7  C11 UNL     1       3.255   0.306   0.893  1.00  0.00     0.004 C 
HETATM    8  C12 UNL     1       3.216  -1.063   0.174  1.00  0.00     0.007 C 
HETATM    9  C13 UNL     1       4.032  -1.152  -1.127  1.00  0.00     0.010 C 
HETATM   10  C14 UNL     1       5.536  -1.324  -0.863  1.00  0.00     0.074 C 
HETATM   11  S1  UNL     1       6.504   0.226  -0.979  1.00  0.00    -0.169 SA
HETATM   12  C15 UNL     1       5.369   1.407  -0.164  1.00  0.00     0.074 C 
HETATM   13  C16 UNL     1       4.685   0.864   1.104  1.00  0.00     0.016 C 
ENDBRANCH   6   7
ENDBRANCH   4   6
ENDBRANCH   1   2
BRANCH   1  14
HETATM   14  C3  UNL     1      -1.989   0.187  -0.675  1.00  0.00     0.053 C 
BRANCH  14  15
HETATM   15  C4  UNL     1      -3.422  -0.219  -0.430  1.00  0.00     0.010 A 
HETATM   16  C5  UNL     1      -3.716  -1.165   0.559  1.00  0.00     0.015 A 
HETATM   17  C6  UNL     1      -5.039  -1.520   0.818  1.00  0.00     0.035 A 
HETATM   18  C7  UNL     1      -6.076  -0.909   0.100  1.00  0.00     0.119 A 
HETATM   19  N1  UNL     1      -5.773   0.002  -0.871  1.00  0.00    -0.319 N 
HETATM   20  C9  UNL     1      -4.487   0.368  -1.139  1.00  0.00     0.252 A 
HETATM   21  H7  UNL     1      -6.539   0.437  -1.432  1.00  0.00     0.169 HD
HETATM   22  O2  UNL     1      -4.261   1.236  -2.025  1.00  0.00    -0.268 OA
BRANCH  18  23
HETATM   23  C8  UNL     1      -7.504  -1.323   0.352  1.00  0.00     0.432 C 
HETATM   24  F1  UNL     1      -7.720  -1.494   1.708  1.00  0.00    -0.165 F 
HETATM   25  F2  UNL     1      -7.754  -2.515  -0.300  1.00  0.00    -0.165 F 
HETATM   26  F3  UNL     1      -8.388  -0.363  -0.109  1.00  0.00    -0.165 F 
ENDBRANCH  18  23
ENDBRANCH  14  15
ENDBRANCH   1  14
TORSDOF 6
