REMARK  3 active torsions:
REMARK  status: ('A' for Active; 'I' for Inactive)
REMARK    1  A    between atoms: C4_4  and  C5_5 
REMARK       I    between atoms: C5_5  and  N1_7 
REMARK    2  A    between atoms: N1_7  and  N2_8 
REMARK    3  A    between atoms: C11_16  and  C12_17 
ROOT
HETATM    1  N2  UNL     1       0.628  -0.837   1.142  1.00  0.00    -0.297 N 
HETATM    2  C6  UNL     1       0.872  -2.266   0.870  1.00  0.00     0.101 C 
HETATM    3  C7  UNL     1       2.055  -2.781   1.706  1.00  0.00     0.034 C 
HETATM    4  C8  UNL     1       1.100  -2.559  -0.618  1.00  0.00     0.036 C 
HETATM    5  C9  UNL     1      -0.196  -2.510  -1.419  1.00  0.00     0.105 C 
HETATM    6  C10 UNL     1      -0.684  -1.116  -1.689  1.00  0.00     0.219 C 
HETATM    7  O2  UNL     1      -0.951  -0.815  -2.883  1.00  0.00    -0.274 OA
HETATM    8  N3  UNL     1      -0.901  -0.116  -0.675  1.00  0.00    -0.338 N 
HETATM    9  C11 UNL     1      -0.628  -0.148   0.772  1.00  0.00     0.209 C 
HETATM   10  H14 UNL     1      -1.264   0.798  -1.032  1.00  0.00     0.164 HD
ENDROOT
BRANCH   1  11
HETATM   11  N1  UNL     1       1.782  -0.016   1.140  1.00  0.00    -0.264 N 
HETATM   12  C5  UNL     1       2.339   0.615  -0.027  1.00  0.00     0.289 C 
HETATM   13  O1  UNL     1       1.703   0.628  -1.113  1.00  0.00    -0.264 OA
HETATM   14  H5  UNL     1       2.266   0.121   2.055  1.00  0.00     0.190 HD
BRANCH  12  15
HETATM   15  C4  UNL     1       3.660   1.269   0.040  1.00  0.00     0.135 A 
HETATM   16  C3  UNL     1       4.248   1.922  -1.070  1.00  0.00     0.053 A 
HETATM   17  C2  UNL     1       5.489   2.470  -0.783  1.00  0.00    -0.000 A 
HETATM   18  C1  UNL     1       6.424   3.137  -1.735  1.00  0.00     0.058 C 
HETATM   19  S1  UNL     1       5.796   2.078   0.804  1.00  0.00     0.007 SA
HETATM   20  N4  UNL     1       4.400   1.261   1.182  1.00  0.00    -0.206 NA
ENDBRANCH  12  15
ENDBRANCH   1  11
BRANCH   9  21
HETATM   21  C12 UNL     1      -1.852  -0.599   1.646  1.00  0.00     0.058 C 
HETATM   22  C13 UNL     1      -2.728  -1.725   1.057  1.00  0.00     0.184 C 
HETATM   23  O3  UNL     1      -3.450  -1.272  -0.089  1.00  0.00    -0.350 OA
HETATM   24  C14 UNL     1      -3.979   0.021  -0.166  1.00  0.00     0.075 A 
HETATM   25  C15 UNL     1      -4.803   0.371  -1.240  1.00  0.00     0.037 A 
HETATM   26  C19 UNL     1      -3.652   0.981   0.812  1.00  0.00    -0.024 A 
HETATM   27  C16 UNL     1      -5.319   1.666  -1.335  1.00  0.00     0.003 A 
HETATM   28  C17 UNL     1      -5.013   2.616  -0.355  1.00  0.00     0.001 A 
HETATM   29  C18 UNL     1      -4.186   2.274   0.719  1.00  0.00     0.010 A 
HETATM   30  C20 UNL     1      -2.788   0.590   1.986  1.00  0.00     0.052 C 
ENDBRANCH   9  21
TORSDOF 3
