REMARK  2 active torsions:
REMARK  status: ('A' for Active; 'I' for Inactive)
REMARK    1  A    between atoms: C9_10  and  C10_11 
REMARK       I    between atoms: C10_11  and  N1_13 
REMARK    2  A    between atoms: N1_13  and  C11_14 
ROOT
HETATM    1  C1  UNL     1      -4.175   4.667  -2.085  1.00  0.00     0.048 C 
HETATM    2  C2  UNL     1      -4.071   3.204  -1.767  1.00  0.00    -0.059 A 
HETATM    3  C3  UNL     1      -5.176   2.497  -1.275  1.00  0.00     0.007 A 
HETATM    4  C4  UNL     1      -5.082   1.127  -1.014  1.00  0.00     0.011 A 
HETATM    5  C5  UNL     1      -3.882   0.442  -1.250  1.00  0.00    -0.021 A 
HETATM    6  C6  UNL     1      -2.771   1.153  -1.735  1.00  0.00     0.075 A 
HETATM    7  C7  UNL     1      -2.872   2.521  -2.014  1.00  0.00     0.044 A 
HETATM    8  O1  UNL     1      -1.570   0.480  -1.934  1.00  0.00    -0.349 OA
HETATM    9  C8  UNL     1      -0.455   0.678  -1.080  1.00  0.00     0.194 C 
HETATM   10  C9  UNL     1       0.570  -0.437  -1.325  1.00  0.00     0.136 C 
HETATM   11  C19 UNL     1      -0.012  -1.854  -1.450  1.00  0.00    -0.032 A 
HETATM   12  C20 UNL     1       0.512  -2.655  -2.487  1.00  0.00     0.009 A 
HETATM   13  C21 UNL     1       0.045  -3.950  -2.716  1.00  0.00     0.001 A 
HETATM   14  C22 UNL     1      -0.960  -4.480  -1.917  1.00  0.00     0.001 A 
HETATM   15  C23 UNL     1      -1.500  -3.719  -0.880  1.00  0.00     0.013 A 
HETATM   16  C24 UNL     1      -1.039  -2.415  -0.620  1.00  0.00    -0.018 A 
HETATM   17  C25 UNL     1      -1.666  -1.725   0.531  1.00  0.00    -0.019 A 
HETATM   18  C26 UNL     1      -1.057  -1.860   1.788  1.00  0.00     0.013 A 
HETATM   19  C27 UNL     1      -1.649  -1.315   2.928  1.00  0.00     0.001 A 
HETATM   20  C28 UNL     1      -2.882  -0.673   2.839  1.00  0.00     0.001 A 
HETATM   21  C29 UNL     1      -3.533  -0.582   1.610  1.00  0.00     0.008 A 
HETATM   22  C30 UNL     1      -2.948  -1.112   0.444  1.00  0.00    -0.043 A 
HETATM   23  C31 UNL     1      -3.729  -1.007  -0.852  1.00  0.00     0.080 C 
ENDROOT
BRANCH  10  24
HETATM   24  C10 UNL     1       1.696  -0.380  -0.331  1.00  0.00     0.232 C 
HETATM   25  O2  UNL     1       1.477  -0.659   0.872  1.00  0.00    -0.272 OA
HETATM   26  N1  UNL     1       3.022  -0.038  -0.763  1.00  0.00    -0.326 N 
HETATM   27  H10 UNL     1       3.216  -0.042  -1.789  1.00  0.00     0.169 HD
BRANCH  26  28
HETATM   28  C11 UNL     1       4.132   0.197   0.120  1.00  0.00     0.036 A 
HETATM   29  C12 UNL     1       5.444  -0.102  -0.330  1.00  0.00     0.030 A 
HETATM   30  C13 UNL     1       6.564   0.127   0.493  1.00  0.00     0.016 A 
HETATM   31  C14 UNL     1       6.341   0.669   1.755  1.00  0.00    -0.008 A 
HETATM   32  C15 UNL     1       7.228   1.015   2.753  1.00  0.00     0.030 A 
HETATM   33  C17 UNL     1       5.080   0.982   2.194  1.00  0.00     0.044 A 
HETATM   34  C16 UNL     1       6.434   1.538   3.775  1.00  0.00     0.089 A 
HETATM   35  N2  UNL     1       5.123   1.516   3.430  1.00  0.00    -0.365 N 
HETATM   36  H15 UNL     1       4.310   1.849   4.007  1.00  0.00     0.165 HD
HETATM   37  C18 UNL     1       3.950   0.770   1.404  1.00  0.00     0.059 A 
ENDBRANCH  26  28
ENDBRANCH  10  24
TORSDOF 2
