REMARK  2 active torsions:
REMARK  status: ('A' for Active; 'I' for Inactive)
REMARK    1  A    between atoms: C6_7  and  C7_8 
REMARK    2  A    between atoms: N3_17  and  C14_18 
ROOT
HETATM    1  C7  UNL     1      -3.902  -0.298  -0.107  1.00  0.00    -0.022 A 
HETATM    2  C8  UNL     1      -3.759  -1.251   0.903  1.00  0.00     0.013 A 
HETATM    3  C9  UNL     1      -2.492  -1.615   1.351  1.00  0.00     0.010 A 
HETATM    4  C10 UNL     1      -1.330  -1.049   0.791  1.00  0.00    -0.030 A 
HETATM    5  C11 UNL     1      -1.465  -0.059  -0.227  1.00  0.00     0.043 A 
HETATM    6  C12 UNL     1      -2.758   0.280  -0.671  1.00  0.00     0.042 A 
HETATM    7  N2  UNL     1      -0.356   0.625  -0.856  1.00  0.00    -0.308 N 
HETATM    8  C13 UNL     1       0.986   0.745  -0.365  1.00  0.00     0.327 C 
HETATM    9  O1  UNL     1       1.535   1.881  -0.385  1.00  0.00    -0.246 OA
HETATM   10  N3  UNL     1       1.738  -0.402   0.069  1.00  0.00    -0.299 N 
HETATM   11  C24 UNL     1       1.058  -1.678   0.266  1.00  0.00     0.138 C 
HETATM   12  C25 UNL     1      -0.006  -1.518   1.345  1.00  0.00     0.061 C 
HETATM   13  H10 UNL     1      -0.591   1.294  -1.625  1.00  0.00     0.170 HD
ENDROOT
BRANCH  10  14
HETATM   14  C14 UNL     1       3.143  -0.285   0.365  1.00  0.00     0.039 A 
HETATM   15  C15 UNL     1       3.641  -0.692   1.613  1.00  0.00     0.031 A 
HETATM   16  C16 UNL     1       5.003  -0.583   1.905  1.00  0.00     0.014 A 
HETATM   17  C17 UNL     1       5.890  -0.066   0.950  1.00  0.00    -0.026 A 
HETATM   18  C18 UNL     1       7.260   0.048   1.232  1.00  0.00     0.012 A 
HETATM   19  C22 UNL     1       5.397   0.345  -0.313  1.00  0.00    -0.024 A 
HETATM   20  C19 UNL     1       8.133   0.564   0.270  1.00  0.00     0.001 A 
HETATM   21  C20 UNL     1       7.648   0.968  -0.976  1.00  0.00     0.001 A 
HETATM   22  C21 UNL     1       6.286   0.860  -1.270  1.00  0.00     0.012 A 
HETATM   23  C23 UNL     1       4.028   0.231  -0.596  1.00  0.00     0.042 A 
ENDBRANCH  10  14
BRANCH   1  24
HETATM   24  C6  UNL     1      -5.251   0.076  -0.588  1.00  0.00    -0.002 A 
HETATM   25  C2  UNL     1      -5.742   1.401  -0.511  1.00  0.00     0.041 A 
HETATM   26  C1  UNL     1      -4.938   2.518   0.089  1.00  0.00     0.071 C 
HETATM   27  N1  UNL     1      -6.983   1.685  -0.995  1.00  0.00    -0.265 NA
HETATM   28  C3  UNL     1      -7.785   0.733  -1.537  1.00  0.00     0.117 A 
HETATM   29  C4  UNL     1      -7.350  -0.589  -1.609  1.00  0.00     0.020 A 
HETATM   30  C5  UNL     1      -6.082  -0.917  -1.131  1.00  0.00     0.016 A 
ENDBRANCH   1  24
TORSDOF 2
