REMARK  5 active torsions:
REMARK  status: ('A' for Active; 'I' for Inactive)
REMARK    1  A    between atoms: C1_2  and  O2_3 
REMARK    2  A    between atoms: C1_2  and  C2_4 
REMARK    3  A    between atoms: C2_4  and  C3_5 
REMARK       I    between atoms: N1_8  and  C6_9 
REMARK    4  A    between atoms: C6_9  and  C7_11 
REMARK    5  A    between atoms: C15_19  and  O4_20 
ROOT
HETATM    1  C3  UNL     1       3.366  -0.294   0.514  1.00  0.00     0.069 C 
HETATM    2  C4  UNL     1       1.883   0.167   0.618  1.00  0.00     0.031 C 
HETATM    3  C5  UNL     1       1.028  -0.114  -0.624  1.00  0.00     0.127 C 
HETATM    4  N1  UNL     1       0.475  -1.472  -0.545  1.00  0.00    -0.348 N 
HETATM    5  C6  UNL     1      -0.711  -1.722   0.239  1.00  0.00     0.255 C 
HETATM    6  O3  UNL     1      -0.796  -2.775   0.929  1.00  0.00    -0.267 OA
HETATM    7  C17 UNL     1       1.326  -2.594  -0.949  1.00  0.00     0.132 C 
HETATM    8  C18 UNL     1       2.558  -2.717  -0.035  1.00  0.00     0.099 C 
HETATM    9  C19 UNL     1       3.618  -1.618  -0.273  1.00  0.00     0.249 C 
HETATM   10  F1  UNL     1       4.840  -2.124   0.143  1.00  0.00    -0.206 F 
HETATM   11  F2  UNL     1       3.731  -1.360  -1.632  1.00  0.00    -0.206 F 
ENDROOT
BRANCH   5  12
HETATM   12  C7  UNL     1      -1.851  -0.778   0.227  1.00  0.00     0.057 A 
HETATM   13  C8  UNL     1      -2.329  -0.320  -1.008  1.00  0.00     0.031 A 
HETATM   14  C9  UNL     1      -3.413   0.561  -1.073  1.00  0.00    -0.022 A 
HETATM   15  C10 UNL     1      -3.883   1.014  -2.317  1.00  0.00     0.012 A 
HETATM   16  C14 UNL     1      -4.041   0.995   0.119  1.00  0.00     0.009 A 
HETATM   17  C11 UNL     1      -4.967   1.891  -2.382  1.00  0.00     0.001 A 
HETATM   18  C12 UNL     1      -5.590   2.323  -1.210  1.00  0.00     0.001 A 
HETATM   19  C13 UNL     1      -5.133   1.881   0.034  1.00  0.00     0.015 A 
HETATM   20  C15 UNL     1      -3.566   0.541   1.366  1.00  0.00     0.099 A 
HETATM   21  C16 UNL     1      -2.468  -0.345   1.421  1.00  0.00     0.083 A 
HETATM   22 CL1  UNL     1      -1.830  -0.861   2.986  1.00  0.00    -0.080 Cl
BRANCH  20  23
HETATM   23  O4  UNL     1      -4.194   0.984   2.535  1.00  0.00    -0.358 OA
HETATM   24  H14 UNL     1      -3.911   0.693   3.462  1.00  0.00     0.217 HD
ENDBRANCH  20  23
ENDBRANCH   5  12
BRANCH   1  25
HETATM   25  C2  UNL     1       4.269   0.836  -0.041  1.00  0.00     0.120 C 
BRANCH  25  26
HETATM   26  C1  UNL     1       4.413   1.973   0.928  1.00  0.00     0.139 C 
HETATM   27  O1  UNL     1       3.864   3.082   0.688  1.00  0.00    -0.650 OA
BRANCH  26  28
HETATM   28  O2  UNL     1       5.145   1.798   2.098  1.00  0.00    -0.776 OA
HETATM   29  H1  UNL     1       5.247   2.554   2.764  1.00  0.00     0.167 HD
ENDBRANCH  26  28
ENDBRANCH  25  26
ENDBRANCH   1  25
TORSDOF 5
