REMARK  3 active torsions:
REMARK  status: ('A' for Active; 'I' for Inactive)
REMARK       I    between atoms: N1_12  and  C11_13 
REMARK    1  A    between atoms: C11_13  and  C12_15 
REMARK    2  A    between atoms: C15_18  and  S1_19 
REMARK    3  A    between atoms: S1_19  and  N2_22 
ROOT
HETATM    1  C1  UNL     1      -2.085  -2.238  -2.415  1.00  0.00     0.033 C 
HETATM    2  C2  UNL     1      -2.945  -1.174  -1.695  1.00  0.00     0.091 C 
HETATM    3  C3  UNL     1      -3.853  -1.870  -0.658  1.00  0.00     0.052 C 
HETATM    4  C4  UNL     1      -3.116  -2.112   0.664  1.00  0.00     0.178 C 
HETATM    5  O1  UNL     1      -3.254  -0.992   1.532  1.00  0.00    -0.349 OA
HETATM    6  C5  UNL     1      -3.163   0.358   1.159  1.00  0.00     0.095 A 
HETATM    7  C6  UNL     1      -3.591   1.303   2.100  1.00  0.00     0.039 A 
HETATM    8  C7  UNL     1      -3.583   2.665   1.802  1.00  0.00     0.003 A 
HETATM    9  C8  UNL     1      -3.145   3.102   0.554  1.00  0.00     0.002 A 
HETATM   10  C9  UNL     1      -2.696   2.179  -0.391  1.00  0.00     0.033 A 
HETATM   11  C10 UNL     1      -2.684   0.798  -0.106  1.00  0.00     0.071 A 
HETATM   12  N1  UNL     1      -2.112  -0.115  -1.072  1.00  0.00    -0.307 N 
HETATM   13  C11 UNL     1      -0.880   0.300  -1.702  1.00  0.00     0.259 C 
HETATM   14  O2  UNL     1      -0.870   0.537  -2.941  1.00  0.00    -0.267 OA
ENDROOT
BRANCH  13  15
HETATM   15  C12 UNL     1       0.354   0.505  -0.904  1.00  0.00     0.035 A 
HETATM   16  C13 UNL     1       1.447   1.197  -1.454  1.00  0.00     0.019 A 
HETATM   17  C14 UNL     1       2.610   1.394  -0.705  1.00  0.00     0.029 A 
HETATM   18  C15 UNL     1       2.705   0.902   0.603  1.00  0.00     0.113 A 
HETATM   19  C18 UNL     1       1.619   0.203   1.155  1.00  0.00     0.140 A 
HETATM   20  F1  UNL     1       1.685  -0.300   2.414  1.00  0.00    -0.204 F 
HETATM   21  C19 UNL     1       0.456   0.005   0.405  1.00  0.00     0.060 A 
BRANCH  18  22
HETATM   22  S1  UNL     1       4.190   1.157   1.529  1.00  0.00     0.246 S 
HETATM   23  O3  UNL     1       4.827   2.446   1.090  1.00  0.00    -0.206 OA
HETATM   24  O4  UNL     1       3.857   1.283   2.990  1.00  0.00    -0.206 OA
BRANCH  22  25
HETATM   25  N2  UNL     1       5.323  -0.153   1.303  1.00  0.00    -0.215 NA
HETATM   26  C16 UNL     1       4.728  -1.415   1.760  1.00  0.00     0.129 C 
HETATM   27  C17 UNL     1       5.694  -0.252  -0.115  1.00  0.00     0.129 C 
ENDBRANCH  22  25
ENDBRANCH  18  22
ENDBRANCH  13  15
TORSDOF 3
