REMARK  2 active torsions:
REMARK  status: ('A' for Active; 'I' for Inactive)
REMARK    1  A    between atoms: C5_6  and  C6_7 
REMARK    2  A    between atoms: C8_9  and  C9_10 
ROOT
HETATM    1  C1  UNL     1      -2.888   0.100   3.275  1.00  0.00     0.049 C 
HETATM    2  C2  UNL     1      -2.549  -0.364   1.889  1.00  0.00    -0.052 C 
HETATM    3  C3  UNL     1      -1.272  -0.383   1.489  1.00  0.00     0.063 C 
HETATM    4  C4  UNL     1      -0.856  -0.902   0.179  1.00  0.00     0.184 C 
HETATM    5  O1  UNL     1      -0.960  -2.130  -0.084  1.00  0.00    -0.288 OA
HETATM    6  C5  UNL     1      -0.256   0.017  -0.794  1.00  0.00     0.035 C 
HETATM    7  C17 UNL     1      -0.988   1.031  -1.343  1.00  0.00    -0.014 A 
HETATM    8  C18 UNL     1      -2.401   0.941  -1.620  1.00  0.00    -0.038 A 
HETATM    9  C19 UNL     1      -3.046   2.037  -2.233  1.00  0.00     0.009 A 
HETATM   10  C20 UNL     1      -2.361   3.212  -2.525  1.00  0.00     0.001 A 
HETATM   11  C21 UNL     1      -1.003   3.307  -2.263  1.00  0.00     0.001 A 
HETATM   12  C22 UNL     1      -0.322   2.233  -1.697  1.00  0.00     0.013 A 
HETATM   13  C23 UNL     1      -3.083  -0.223  -1.610  1.00  0.00     0.061 C 
HETATM   14  C24 UNL     1      -3.830  -0.661  -0.418  1.00  0.00    -0.063 A 
HETATM   15  C25 UNL     1      -3.642  -0.699   0.964  1.00  0.00    -0.049 A 
HETATM   16  C26 UNL     1      -5.025  -1.220   1.156  1.00  0.00     0.043 A 
HETATM   17  C27 UNL     1      -5.199  -1.233  -0.258  1.00  0.00     0.040 A 
ENDROOT
BRANCH   6  18
HETATM   18  C6  UNL     1       1.211  -0.118  -1.019  1.00  0.00    -0.020 A 
HETATM   19  C7  UNL     1       2.093  -0.306   0.060  1.00  0.00     0.024 A 
HETATM   20  C8  UNL     1       3.476  -0.453  -0.156  1.00  0.00    -0.024 A 
HETATM   21  C14 UNL     1       3.967  -0.419  -1.473  1.00  0.00     0.012 A 
HETATM   22  C15 UNL     1       3.095  -0.243  -2.549  1.00  0.00     0.002 A 
HETATM   23  C16 UNL     1       1.725  -0.098  -2.326  1.00  0.00     0.012 A 
BRANCH  20  24
HETATM   24  C9  UNL     1       4.403  -0.641   0.989  1.00  0.00    -0.008 A 
HETATM   25  C10 UNL     1       5.475  -1.546   0.908  1.00  0.00     0.015 A 
HETATM   26  C11 UNL     1       6.336  -1.714   1.994  1.00  0.00     0.020 A 
HETATM   27  C12 UNL     1       6.123  -0.974   3.157  1.00  0.00     0.116 A 
HETATM   28  N1  UNL     1       5.085  -0.100   3.226  1.00  0.00    -0.272 NA
HETATM   29  C13 UNL     1       4.230   0.081   2.184  1.00  0.00     0.128 A 
ENDBRANCH  20  24
ENDBRANCH   6  18
TORSDOF 2
