REMARK  3 active torsions:
REMARK  status: ('A' for Active; 'I' for Inactive)
REMARK    1  A    between atoms: C4_6  and  C5_7 
REMARK       I    between atoms: C5_7  and  N2_9 
REMARK    2  A    between atoms: C9_13  and  N3_14 
REMARK       I    between atoms: N3_14  and  C10_15 
REMARK    3  A    between atoms: C10_15  and  C11_17 
ROOT
HETATM    1  C5  UNL     1       3.959  -0.532   0.431  1.00  0.00     0.275 C 
HETATM    2  O2  UNL     1       4.561  -1.403   1.117  1.00  0.00    -0.266 OA
HETATM    3  N2  UNL     1       2.535  -0.354   0.612  1.00  0.00    -0.347 N 
HETATM    4  C6  UNL     1       1.964  -0.748   1.913  1.00  0.00     0.126 C 
HETATM    5  C7  UNL     1       0.491  -0.359   2.115  1.00  0.00     0.022 C 
HETATM    6  C8  UNL     1       0.250   1.153   1.981  1.00  0.00     0.027 C 
HETATM    7  C9  UNL     1      -0.055   1.610   0.539  1.00  0.00     0.086 C 
HETATM    8  C17 UNL     1       1.153   1.442  -0.406  1.00  0.00     0.045 C 
HETATM    9  C18 UNL     1       1.677   0.002  -0.530  1.00  0.00     0.128 C 
ENDROOT
BRANCH   7  10
HETATM   10  N3  UNL     1      -1.254   0.947   0.005  1.00  0.00    -0.352 N 
HETATM   11  C10 UNL     1      -2.571   1.220   0.510  1.00  0.00     0.253 C 
HETATM   12  O3  UNL     1      -2.751   2.170   1.319  1.00  0.00    -0.268 OA
HETATM   13  H12 UNL     1      -1.164   0.320  -0.825  1.00  0.00     0.163 HD
BRANCH  11  14
HETATM   14  C11 UNL     1      -3.728   0.409   0.086  1.00  0.00     0.051 A 
HETATM   15  C12 UNL     1      -5.059   0.648   0.444  1.00  0.00     0.110 A 
HETATM   16  N4  UNL     1      -5.798  -0.314  -0.123  1.00  0.00    -0.335 N 
HETATM   17  C13 UNL     1      -5.017  -1.120  -0.787  1.00  0.00     0.145 A 
HETATM   18  C16 UNL     1      -7.176  -0.739  -0.193  1.00  0.00     0.157 A 
HETATM   19  C14 UNL     1      -3.698  -0.744  -0.714  1.00  0.00     0.074 A 
HETATM   20  O4  UNL     1      -5.676  -2.162  -1.394  1.00  0.00    -0.334 OA
HETATM   21  C15 UNL     1      -7.073  -2.018  -1.083  1.00  0.00     0.197 A 
ENDBRANCH  11  14
ENDBRANCH   7  10
BRANCH   1  22
HETATM   22  C4  UNL     1       4.744   0.296  -0.513  1.00  0.00     0.159 A 
HETATM   23  C2  UNL     1       6.028   0.051  -0.971  1.00  0.00    -0.001 A 
HETATM   24  C1  UNL     1       6.929  -1.099  -0.655  1.00  0.00     0.053 C 
HETATM   25  C3  UNL     1       6.321   1.130  -1.776  1.00  0.00     0.179 A 
HETATM   26  O1  UNL     1       5.280   1.930  -1.778  1.00  0.00    -0.225 OA
HETATM   27  N1  UNL     1       4.320   1.465  -1.031  1.00  0.00    -0.123 NA
ENDBRANCH   1  22
TORSDOF 3
