REMARK  3 active torsions:
REMARK  status: ('A' for Active; 'I' for Inactive)
REMARK    1  A    between atoms: C6_6  and  C7_7 
REMARK    2  A    between atoms: C7_7  and  C8_8 
REMARK    3  A    between atoms: C8_8  and  C10_10 
REMARK       I    between atoms: C10_10  and  N1_12 
ROOT
HETATM    1  C10 UNL     1      -0.738  -0.659  -0.919  1.00  0.00     0.228 C 
HETATM    2  O1  UNL     1      -0.911  -0.589  -2.168  1.00  0.00    -0.273 OA
HETATM    3  N1  UNL     1      -1.894  -0.667  -0.045  1.00  0.00    -0.315 N 
HETATM    4  C11 UNL     1      -1.793  -0.750   1.413  1.00  0.00     0.141 C 
HETATM    5  C12 UNL     1      -1.626   0.645   1.998  1.00  0.00     0.123 C 
HETATM    6  C13 UNL     1      -2.880   1.458   1.869  1.00  0.00     0.223 C 
HETATM    7  O2  UNL     1      -3.326   2.046   2.891  1.00  0.00    -0.273 OA
HETATM    8  N2  UNL     1      -3.512   1.696   0.602  1.00  0.00    -0.325 N 
HETATM    9  C14 UNL     1      -3.980   0.659  -0.282  1.00  0.00     0.061 A 
HETATM   10  C15 UNL     1      -5.234   0.818  -0.897  1.00  0.00     0.032 A 
HETATM   11  C16 UNL     1      -5.725  -0.143  -1.783  1.00  0.00     0.002 A 
HETATM   12  C17 UNL     1      -4.965  -1.274  -2.078  1.00  0.00     0.002 A 
HETATM   13  C18 UNL     1      -3.709  -1.441  -1.493  1.00  0.00     0.032 A 
HETATM   14  C19 UNL     1      -3.202  -0.480  -0.603  1.00  0.00     0.064 A 
HETATM   15  H17 UNL     1      -3.972   2.630   0.506  1.00  0.00     0.169 HD
ENDROOT
BRANCH   1  16
HETATM   16  C8  UNL     1       0.681  -0.789  -0.397  1.00  0.00     0.078 C 
HETATM   17  C9  UNL     1       1.099  -2.264  -0.424  1.00  0.00     0.020 C 
BRANCH  16  18
HETATM   18  C7  UNL     1       1.650   0.092  -1.219  1.00  0.00     0.052 C 
BRANCH  18  19
HETATM   19  C6  UNL     1       3.011   0.186  -0.575  1.00  0.00    -0.057 A 
HETATM   20  C5  UNL     1       4.079  -0.593  -1.049  1.00  0.00     0.007 A 
HETATM   21  C4  UNL     1       5.333  -0.512  -0.439  1.00  0.00     0.001 A 
HETATM   22  C3  UNL     1       5.530   0.337   0.652  1.00  0.00     0.007 A 
HETATM   23  C2  UNL     1       4.467   1.103   1.152  1.00  0.00    -0.061 A 
HETATM   24  C1  UNL     1       4.686   2.040   2.303  1.00  0.00     0.048 C 
HETATM   25  C20 UNL     1       3.212   1.035   0.526  1.00  0.00     0.013 A 
ENDBRANCH  18  19
ENDBRANCH  16  18
ENDBRANCH   1  16
TORSDOF 3
