REMARK  6 active torsions:
REMARK  status: ('A' for Active; 'I' for Inactive)
REMARK       I    between atoms: C1_2  and  N1_3 
REMARK    1  A    between atoms: C1_2  and  C27_30 
REMARK       I    between atoms: N1_3  and  C2_4 
REMARK    2  A    between atoms: C2_4  and  C3_6 
REMARK    3  A    between atoms: C6_9  and  C26_29 
REMARK    4  A    between atoms: C7_10  and  C9_12 
REMARK    5  A    between atoms: C14_17  and  C15_18 
REMARK    6  A    between atoms: C20_23  and  C21_24 
ROOT
HETATM    1  O1  UNL     1       1.353  -0.809  -0.330  1.00  0.00    -0.267 OA
HETATM    2  C1  UNL     1       2.121   0.086   0.117  1.00  0.00     0.261 C 
HETATM    3  N1  UNL     1       1.752   0.843   1.282  1.00  0.00    -0.289 N 
HETATM    4  C2  UNL     1       0.477   0.694   1.921  1.00  0.00     0.258 C 
HETATM    5  O2  UNL     1       0.446   0.533   3.174  1.00  0.00    -0.267 OA
HETATM    6  H1  UNL     1       2.496   1.356   1.803  1.00  0.00     0.172 HD
ENDROOT
BRANCH   4   7
HETATM    7  C3  UNL     1      -0.794   0.757   1.155  1.00  0.00     0.033 A 
HETATM    8  C4  UNL     1      -0.868   1.437  -0.061  1.00  0.00     0.018 A 
HETATM    9  C5  UNL     1      -2.067   1.492  -0.765  1.00  0.00     0.014 A 
HETATM   10  C6  UNL     1      -3.250   0.883  -0.278  1.00  0.00    -0.014 A 
HETATM   11  C7  UNL     1      -3.198   0.233   0.985  1.00  0.00    -0.013 A 
HETATM   12  C8  UNL     1      -1.959   0.171   1.669  1.00  0.00     0.030 A 
BRANCH  10  13
HETATM   13  C26 UNL     1      -4.451   0.910  -1.167  1.00  0.00    -0.014 C 
HETATM   14  C21 UNL     1      -4.960  -0.309  -1.665  1.00  0.00    -0.014 C 
HETATM   15  C22 UNL     1      -4.938  -0.495  -3.063  1.00  0.00     0.013 C 
HETATM   16  C23 UNL     1      -4.892   0.616  -3.912  1.00  0.00     0.001 C 
HETATM   17  C24 UNL     1      -4.812   1.897  -3.360  1.00  0.00     0.001 C 
HETATM   18  C25 UNL     1      -4.593   2.047  -1.988  1.00  0.00     0.013 C 
BRANCH  14  19
HETATM   19  C20 UNL     1      -6.157  -0.875  -0.989  1.00  0.00    -0.014 A 
HETATM   20  C15 UNL     1      -6.115  -1.500   0.279  1.00  0.00    -0.014 A 
HETATM   21  C16 UNL     1      -7.326  -1.974   0.842  1.00  0.00     0.013 A 
HETATM   22  C17 UNL     1      -8.540  -1.835   0.176  1.00  0.00     0.001 A 
HETATM   23  C18 UNL     1      -8.583  -1.206  -1.061  1.00  0.00     0.001 A 
HETATM   24  C19 UNL     1      -7.410  -0.726  -1.635  1.00  0.00     0.013 A 
BRANCH  20  25
HETATM   25  C14 UNL     1      -4.881  -1.605   1.099  1.00  0.00    -0.014 C 
HETATM   26  C9  UNL     1      -4.367  -0.412   1.649  1.00  0.00    -0.014 C 
HETATM   27  C10 UNL     1      -4.418  -0.276   3.053  1.00  0.00     0.013 C 
HETATM   28  C11 UNL     1      -4.525  -1.417   3.857  1.00  0.00     0.001 C 
HETATM   29  C12 UNL     1      -4.612  -2.678   3.260  1.00  0.00     0.001 C 
HETATM   30  C13 UNL     1      -4.781  -2.776   1.876  1.00  0.00     0.013 C 
ENDBRANCH  20  25
ENDBRANCH  14  19
ENDBRANCH  10  13
ENDBRANCH   4   7
BRANCH   2  31
HETATM   31  C27 UNL     1       3.419   0.318  -0.544  1.00  0.00     0.074 A 
HETATM   32  C28 UNL     1       4.601   0.349   0.210  1.00  0.00     0.033 A 
HETATM   33  C29 UNL     1       5.853   0.540  -0.411  1.00  0.00    -0.013 A 
HETATM   34  C30 UNL     1       5.901   0.734  -1.813  1.00  0.00     0.004 A 
HETATM   35  C40 UNL     1       7.091   0.529   0.427  1.00  0.00     0.002 A 
HETATM   36  C31 UNL     1       4.709   0.698  -2.564  1.00  0.00     0.163 A 
HETATM   37  C33 UNL     1       7.225   0.910  -2.508  1.00  0.00     0.145 C 
HETATM   38  F1  UNL     1       4.732   0.872  -3.912  1.00  0.00    -0.202 F 
HETATM   39  C32 UNL     1       3.481   0.481  -1.937  1.00  0.00     0.171 A 
HETATM   40  F2  UNL     1       2.347   0.453  -2.686  1.00  0.00    -0.202 F 
HETATM   41  C34 UNL     1       7.960  -0.386  -2.437  1.00  0.00     0.226 C 
HETATM   42  O3  UNL     1       8.207  -1.023  -3.498  1.00  0.00    -0.273 OA
HETATM   43  N2  UNL     1       8.368  -0.925  -1.173  1.00  0.00    -0.326 N 
HETATM   44  C35 UNL     1       8.258  -0.201   0.066  1.00  0.00     0.045 A 
HETATM   45  H20 UNL     1       8.960  -1.789  -1.191  1.00  0.00     0.169 HD
HETATM   46  C36 UNL     1       9.344  -0.249   0.953  1.00  0.00     0.030 A 
HETATM   47  C37 UNL     1       9.312   0.446   2.159  1.00  0.00     0.002 A 
HETATM   48  C38 UNL     1       8.191   1.197   2.504  1.00  0.00     0.001 A 
HETATM   49  C39 UNL     1       7.086   1.235   1.649  1.00  0.00     0.014 A 
ENDBRANCH   2  31
TORSDOF 6
