REMARK  3 active torsions:
REMARK  status: ('A' for Active; 'I' for Inactive)
REMARK    1  A    between atoms: C5_6  and  N2_7 
REMARK    2  A    between atoms: C9_11  and  N3_12 
REMARK    3  A    between atoms: N3_12  and  C10_13 
ROOT
HETATM    1  N1  UNL     1       8.360   3.535  -0.915  1.00  0.00    -0.191 NA
HETATM    2  C1  UNL     1       7.460   2.808  -0.875  1.00  0.00     0.099 C 
HETATM    3  C2  UNL     1       6.342   1.903  -0.825  1.00  0.00     0.044 A 
HETATM    4  C3  UNL     1       6.558   0.522  -0.749  1.00  0.00     0.025 A 
HETATM    5  C4  UNL     1       5.472  -0.357  -0.700  1.00  0.00     0.031 A 
HETATM    6  C5  UNL     1       4.155   0.136  -0.728  1.00  0.00     0.030 A 
HETATM    7  C21 UNL     1       3.947   1.524  -0.803  1.00  0.00     0.031 A 
HETATM    8  C22 UNL     1       5.034   2.402  -0.851  1.00  0.00     0.025 A 
ENDROOT
BRANCH   6   9
HETATM    9  N2  UNL     1       3.031  -0.764  -0.675  1.00  0.00    -0.379 N 
HETATM   10  C6  UNL     1       3.072  -1.944   0.198  1.00  0.00     0.123 C 
HETATM   11  C7  UNL     1       1.681  -2.239   0.766  1.00  0.00     0.022 C 
HETATM   12  C8  UNL     1       0.635  -2.309  -0.353  1.00  0.00     0.028 C 
HETATM   13  C9  UNL     1       0.619  -1.013  -1.187  1.00  0.00     0.099 C 
HETATM   14  C20 UNL     1       2.026  -0.733  -1.747  1.00  0.00     0.148 C 
BRANCH  13  15
HETATM   15  N3  UNL     1       0.148   0.121  -0.377  1.00  0.00    -0.384 N 
HETATM   16  H10 UNL     1       0.852   0.831  -0.070  1.00  0.00     0.160 HD
BRANCH  15  17
HETATM   17  C10 UNL     1      -1.215   0.313   0.053  1.00  0.00     0.028 A 
HETATM   18  C11 UNL     1      -1.499   1.338   0.967  1.00  0.00     0.029 A 
HETATM   19  C12 UNL     1      -2.803   1.555   1.412  1.00  0.00     0.010 A 
HETATM   20  C13 UNL     1      -3.855   0.751   0.952  1.00  0.00    -0.050 A 
HETATM   21  C14 UNL     1      -3.594  -0.270   0.008  1.00  0.00    -0.048 A 
HETATM   22  C19 UNL     1      -5.263   1.018   1.422  1.00  0.00     0.065 C 
HETATM   23  C15 UNL     1      -2.273  -0.486  -0.423  1.00  0.00     0.037 A 
HETATM   24  C16 UNL     1      -4.700  -1.179  -0.502  1.00  0.00     0.065 C 
HETATM   25  C17 UNL     1      -5.992  -0.448  -0.943  1.00  0.00     0.172 C 
HETATM   26  O1  UNL     1      -5.827   0.958  -0.983  1.00  0.00    -0.391 OA
HETATM   27  C18 UNL     1      -6.139   1.545   0.270  1.00  0.00     0.172 C 
ENDBRANCH  15  17
ENDBRANCH  13  15
ENDBRANCH   6   9
TORSDOF 3
