REMARK  3 active torsions:
REMARK  status: ('A' for Active; 'I' for Inactive)
REMARK    1  A    between atoms: C4_4  and  C5_5 
REMARK       I    between atoms: N1_7  and  C7_8 
REMARK    2  A    between atoms: C7_8  and  C8_10 
REMARK    3  A    between atoms: C14_16  and  C15_17 
ROOT
HETATM    1  C8  UNL     1      -0.827  -1.881   1.061  1.00  0.00     0.086 C 
HETATM    2  C9  UNL     1      -1.254  -3.363   1.176  1.00  0.00     0.015 C 
HETATM    3  C10 UNL     1      -2.022  -3.939  -0.027  1.00  0.00     0.001 C 
HETATM    4  C11 UNL     1      -3.470  -3.433  -0.085  1.00  0.00     0.000 C 
HETATM    5  C12 UNL     1      -3.652  -2.135  -0.886  1.00  0.00     0.001 C 
HETATM    6  C13 UNL     1      -2.522  -1.097  -0.767  1.00  0.00     0.010 C 
HETATM    7  C14 UNL     1      -1.973  -0.894   0.672  1.00  0.00     0.031 C 
ENDROOT
BRANCH   1   8
HETATM    8  C7  UNL     1       0.429  -1.716   0.235  1.00  0.00     0.225 C 
HETATM    9  N1  UNL     1       1.495  -0.911   0.732  1.00  0.00    -0.338 N 
HETATM   10  C5  UNL     1       2.846  -0.283   0.619  1.00  0.00     0.157 A 
HETATM   11  C6  UNL     1       2.118  -0.033   1.768  1.00  0.00     0.158 A 
HETATM   12  O1  UNL     1       0.548  -2.267  -0.890  1.00  0.00    -0.273 OA
BRANCH  10  13
HETATM   13  C4  UNL     1       2.859   0.805  -0.412  1.00  0.00     0.062 A 
HETATM   14  C3  UNL     1       3.593   1.977  -0.199  1.00  0.00     0.056 A 
HETATM   15  C2  UNL     1       3.589   2.959  -1.195  1.00  0.00     0.034 A 
HETATM   16  C1  UNL     1       4.387   4.212  -1.026  1.00  0.00     0.070 C 
HETATM   17  N3  UNL     1       2.905   2.740  -2.351  1.00  0.00    -0.247 NA
HETATM   18  C21 UNL     1       2.208   1.590  -2.548  1.00  0.00     0.233 A 
HETATM   19  N2  UNL     1       2.195   0.631  -1.588  1.00  0.00    -0.244 NA
ENDBRANCH  10  13
ENDBRANCH   1   8
BRANCH   7  20
HETATM   20  C15 UNL     1      -1.521   0.544   0.902  1.00  0.00    -0.053 A 
HETATM   21  C16 UNL     1      -1.734   1.146   2.156  1.00  0.00     0.007 A 
HETATM   22  C17 UNL     1      -1.268   2.439   2.411  1.00  0.00     0.001 A 
HETATM   23  C18 UNL     1      -0.581   3.145   1.422  1.00  0.00     0.000 A 
HETATM   24  C19 UNL     1      -0.350   2.557   0.177  1.00  0.00     0.001 A 
HETATM   25  C20 UNL     1      -0.807   1.262  -0.080  1.00  0.00     0.007 A 
ENDBRANCH   7  20
TORSDOF 3
