REMARK  3 active torsions:
REMARK  status: ('A' for Active; 'I' for Inactive)
REMARK    1  A    between atoms: C1_2  and  C2_3 
REMARK    2  A    between atoms: C1_2  and  C8_9 
REMARK    3  A    between atoms: C11_13  and  C12_14 
ROOT
HETATM    1  C8  UNL     1       2.571   0.216  -0.956  1.00  0.00     0.129 A 
HETATM    2  N1  UNL     1       2.831  -1.014  -1.480  1.00  0.00    -0.255 NA
HETATM    3  C9  UNL     1       1.848  -1.889  -1.804  1.00  0.00     0.118 A 
HETATM    4  C10 UNL     1       0.513  -1.540  -1.616  1.00  0.00     0.033 A 
HETATM    5  C11 UNL     1       0.191  -0.282  -1.089  1.00  0.00    -0.000 A 
HETATM    6  C22 UNL     1       1.230   0.609  -0.741  1.00  0.00     0.077 A 
HETATM    7 CL1  UNL     1       0.856   2.138   0.067  1.00  0.00    -0.081 Cl
ENDROOT
BRANCH   5   8
HETATM    8  C12 UNL     1      -1.235   0.071  -0.905  1.00  0.00    -0.024 A 
HETATM    9  C13 UNL     1      -1.774   1.200  -1.536  1.00  0.00     0.013 A 
HETATM   10  C14 UNL     1      -3.121   1.526  -1.369  1.00  0.00     0.009 A 
HETATM   11  C15 UNL     1      -3.958   0.722  -0.577  1.00  0.00    -0.043 A 
HETATM   12  C16 UNL     1      -3.427  -0.428   0.048  1.00  0.00    -0.049 A 
HETATM   13  C21 UNL     1      -5.411   1.089  -0.420  1.00  0.00     0.141 C 
HETATM   14  C17 UNL     1      -2.067  -0.741  -0.120  1.00  0.00     0.020 A 
HETATM   15  C18 UNL     1      -4.281  -1.280   0.956  1.00  0.00     0.058 C 
HETATM   16  C19 UNL     1      -4.635  -0.515   2.236  1.00  0.00     0.127 C 
HETATM   17  N2  UNL     1      -5.729   0.438   2.037  1.00  0.00    -0.360 N 
HETATM   18  C20 UNL     1      -5.743   1.433   1.003  1.00  0.00     0.221 C 
HETATM   19  H15 UNL     1      -6.380   0.579   2.843  1.00  0.00     0.162 HD
HETATM   20  O2  UNL     1      -6.126   2.601   1.279  1.00  0.00    -0.273 OA
ENDBRANCH   5   8
BRANCH   1  21
HETATM   21  C1  UNL     1       3.714   1.107  -0.651  1.00  0.00     0.212 C 
HETATM   22  O1  UNL     1       3.623   2.337  -0.915  1.00  0.00    -0.285 OA
BRANCH  21  23
HETATM   23  C2  UNL     1       4.984   0.580  -0.091  1.00  0.00     0.016 A 
HETATM   24  C3  UNL     1       6.188   1.280  -0.295  1.00  0.00     0.015 A 
HETATM   25  C4  UNL     1       7.388   0.797   0.237  1.00  0.00     0.001 A 
HETATM   26  C5  UNL     1       7.398  -0.382   0.985  1.00  0.00     0.000 A 
HETATM   27  C6  UNL     1       6.209  -1.079   1.206  1.00  0.00     0.001 A 
HETATM   28  C7  UNL     1       5.006  -0.601   0.676  1.00  0.00     0.015 A 
ENDBRANCH  21  23
ENDBRANCH   1  21
TORSDOF 3
