REMARK  3 active torsions:
REMARK  status: ('A' for Active; 'I' for Inactive)
REMARK    1  A    between atoms: C1_2  and  C2_3 
REMARK       I    between atoms: C1_2  and  N1_22 
REMARK    2  A    between atoms: C4_5  and  C5_6 
REMARK    3  A    between atoms: N1_22  and  C20_23 
ROOT
HETATM    1  C2  UNL     1       0.554  -0.176  -2.464  1.00  0.00     0.033 A 
HETATM    2  C3  UNL     1       1.441   0.060  -1.385  1.00  0.00     0.030 A 
HETATM    3  C4  UNL     1       2.838   0.046  -1.582  1.00  0.00    -0.016 A 
HETATM    4  C15 UNL     1       3.315  -0.217  -2.877  1.00  0.00    -0.015 A 
HETATM    5  C16 UNL     1       2.473  -0.465  -3.902  1.00  0.00    -0.024 A 
HETATM    6  C17 UNL     1       1.088  -0.454  -3.741  1.00  0.00     0.027 A 
HETATM    7  C18 UNL     1       3.256  -0.782  -5.108  1.00  0.00     0.207 A 
HETATM    8  O2  UNL     1       4.626  -0.752  -4.735  1.00  0.00    -0.382 OA
HETATM    9  C19 UNL     1       4.701  -0.379  -3.365  1.00  0.00     0.208 A 
ENDROOT
BRANCH   1  10
HETATM   10  C1  UNL     1      -0.914  -0.166  -2.259  1.00  0.00     0.256 C 
HETATM   11  O1  UNL     1      -1.665  -0.702  -3.119  1.00  0.00    -0.267 OA
HETATM   12  N1  UNL     1      -1.493   0.489  -1.118  1.00  0.00    -0.323 N 
HETATM   13  H14 UNL     1      -0.977   1.296  -0.701  1.00  0.00     0.169 HD
BRANCH  12  14
HETATM   14  C20 UNL     1      -2.807   0.197  -0.609  1.00  0.00     0.035 A 
HETATM   15  C21 UNL     1      -3.531   1.202   0.046  1.00  0.00     0.045 A 
HETATM   16  C22 UNL     1      -4.802   0.946   0.588  1.00  0.00     0.026 A 
HETATM   17  C23 UNL     1      -5.361  -0.349   0.462  1.00  0.00     0.024 A 
HETATM   18  C30 UNL     1      -5.538   2.071   1.203  1.00  0.00     0.160 C 
HETATM   19  C24 UNL     1      -4.630  -1.351  -0.195  1.00  0.00     0.018 A 
HETATM   20  C26 UNL     1      -6.723  -0.675   0.935  1.00  0.00     0.160 C 
HETATM   21  C25 UNL     1      -3.361  -1.088  -0.710  1.00  0.00     0.030 A 
HETATM   22  O3  UNL     1      -7.519  -1.270   0.159  1.00  0.00    -0.292 OA
HETATM   23  C27 UNL     1      -7.164  -0.365   2.334  1.00  0.00     0.084 C 
HETATM   24  C28 UNL     1      -7.449   1.125   2.527  1.00  0.00     0.015 C 
HETATM   25  C29 UNL     1      -6.163   1.952   2.561  1.00  0.00     0.084 C 
HETATM   26  O4  UNL     1      -5.602   3.173   0.593  1.00  0.00    -0.292 OA
ENDBRANCH  12  14
ENDBRANCH   1  10
BRANCH   3  27
HETATM   27  C5  UNL     1       3.755   0.268  -0.443  1.00  0.00    -0.024 A 
HETATM   28  C6  UNL     1       4.732   1.275  -0.501  1.00  0.00     0.013 A 
HETATM   29  C7  UNL     1       5.594   1.490   0.577  1.00  0.00     0.013 A 
HETATM   30  C8  UNL     1       5.487   0.706   1.734  1.00  0.00    -0.026 A 
HETATM   31  C9  UNL     1       6.348   0.914   2.823  1.00  0.00     0.012 A 
HETATM   32  C13 UNL     1       4.496  -0.303   1.806  1.00  0.00    -0.025 A 
HETATM   33  C10 UNL     1       6.227   0.127   3.972  1.00  0.00     0.001 A 
HETATM   34  C11 UNL     1       5.250  -0.869   4.044  1.00  0.00     0.001 A 
HETATM   35  C12 UNL     1       4.386  -1.086   2.966  1.00  0.00     0.012 A 
HETATM   36  C14 UNL     1       3.635  -0.512   0.718  1.00  0.00     0.024 A 
ENDBRANCH   3  27
TORSDOF 3
