REMARK  3 active torsions:
REMARK  status: ('A' for Active; 'I' for Inactive)
REMARK    1  A    between atoms: N1_12  and  C12_13 
REMARK    2  A    between atoms: C17_18  and  N2_19 
REMARK       I    between atoms: N2_19  and  C18_20 
REMARK    3  A    between atoms: C18_20  and  C19_22 
ROOT
HETATM    1  C12 UNL     1      -1.406   0.548  -1.525  1.00  0.00     0.062 A 
HETATM    2  C13 UNL     1      -2.480   0.934  -2.341  1.00  0.00     0.032 A 
HETATM    3  C14 UNL     1      -2.250   1.564  -3.565  1.00  0.00     0.002 A 
HETATM    4  C15 UNL     1      -0.944   1.824  -3.982  1.00  0.00     0.002 A 
HETATM    5  C16 UNL     1       0.135   1.458  -3.174  1.00  0.00     0.032 A 
HETATM    6  C17 UNL     1      -0.082   0.812  -1.944  1.00  0.00     0.062 A 
ENDROOT
BRANCH   6   7
HETATM    7  N2  UNL     1       1.026   0.518  -1.077  1.00  0.00    -0.321 N 
HETATM    8  C18 UNL     1       2.232  -0.122  -1.532  1.00  0.00     0.256 C 
HETATM    9  O1  UNL     1       2.343  -0.461  -2.742  1.00  0.00    -0.267 OA
HETATM   10  H19 UNL     1       0.920   0.766  -0.070  1.00  0.00     0.169 HD
BRANCH   8  11
HETATM   11  C19 UNL     1       3.354  -0.397  -0.603  1.00  0.00     0.033 A 
HETATM   12  C20 UNL     1       3.128  -0.608   0.783  1.00  0.00     0.018 A 
HETATM   13  C21 UNL     1       4.199  -0.875   1.652  1.00  0.00     0.018 A 
HETATM   14  C22 UNL     1       5.481  -0.933   1.115  1.00  0.00     0.040 A 
HETATM   15  C23 UNL     1       5.720  -0.745  -0.227  1.00  0.00    -0.024 A 
HETATM   16  C26 UNL     1       6.751  -1.190   1.743  1.00  0.00     0.252 A 
HETATM   17  C24 UNL     1       4.672  -0.479  -1.108  1.00  0.00     0.027 A 
HETATM   18  C25 UNL     1       7.185  -0.870  -0.537  1.00  0.00     0.162 A 
HETATM   19  N3  UNL     1       7.785  -1.155   0.768  1.00  0.00    -0.353 N 
HETATM   20  H25 UNL     1       8.801  -1.308   0.952  1.00  0.00     0.163 HD
HETATM   21  O2  UNL     1       6.941  -1.414   2.967  1.00  0.00    -0.268 OA
ENDBRANCH   8  11
ENDBRANCH   6   7
BRANCH   1  22
HETATM   22  N1  UNL     1      -1.676  -0.128  -0.282  1.00  0.00    -0.345 N 
HETATM   23  C5  UNL     1      -2.501   0.520   0.697  1.00  0.00     0.041 A 
HETATM   24  C4  UNL     1      -2.057   1.729   1.252  1.00  0.00     0.031 A 
HETATM   25  C6  UNL     1      -3.739  -0.033   1.113  1.00  0.00    -0.031 A 
HETATM   26  C3  UNL     1      -2.818   2.395   2.211  1.00  0.00     0.009 A 
HETATM   27  C2  UNL     1      -4.051   1.874   2.615  1.00  0.00    -0.061 A 
HETATM   28  C1  UNL     1      -4.858   2.575   3.669  1.00  0.00     0.048 C 
HETATM   29  C7  UNL     1      -4.500   0.662   2.072  1.00  0.00     0.016 A 
HETATM   30  C8  UNL     1      -4.361  -1.290   0.520  1.00  0.00     0.041 C 
HETATM   31  C9  UNL     1      -3.430  -2.278  -0.206  1.00  0.00     0.006 C 
HETATM   32  C10 UNL     1      -2.079  -2.456   0.500  1.00  0.00     0.021 C 
HETATM   33  C11 UNL     1      -1.052  -1.423   0.019  1.00  0.00     0.129 C 
ENDBRANCH   1  22
TORSDOF 3
