REMARK  2 active torsions:
REMARK  status: ('A' for Active; 'I' for Inactive)
REMARK    1  A    between atoms: C5_5  and  C6_6 
REMARK    2  A    between atoms: C9_9  and  C10_10 
REMARK       I    between atoms: C10_10  and  N1_12 
ROOT
HETATM    1  C6  UNL     1       1.660  -0.339  -1.034  1.00  0.00    -0.024 A 
HETATM    2  C7  UNL     1       1.358  -1.336  -1.976  1.00  0.00     0.013 A 
HETATM    3  C8  UNL     1       0.037  -1.557  -2.374  1.00  0.00     0.018 A 
HETATM    4  C9  UNL     1      -1.007  -0.789  -1.834  1.00  0.00     0.032 A 
HETATM    5  C20 UNL     1      -0.701   0.229  -0.915  1.00  0.00     0.018 A 
HETATM    6  C21 UNL     1       0.619   0.450  -0.516  1.00  0.00     0.013 A 
ENDROOT
BRANCH   4   7
HETATM    7  C10 UNL     1      -2.407  -1.036  -2.251  1.00  0.00     0.259 C 
HETATM    8  O1  UNL     1      -2.634  -1.438  -3.424  1.00  0.00    -0.267 OA
HETATM    9  N1  UNL     1      -3.509  -0.832  -1.342  1.00  0.00    -0.296 N 
HETATM   10  C11 UNL     1      -4.792  -0.348  -1.827  1.00  0.00     0.255 C 
HETATM   11  C19 UNL     1      -3.379  -1.076   0.063  1.00  0.00     0.052 A 
HETATM   12  N2  UNL     1      -4.822   1.093  -1.695  1.00  0.00    -0.377 N 
HETATM   13  C12 UNL     1      -4.752   1.787  -0.438  1.00  0.00     0.003 C 
HETATM   14  H10 UNL     1      -4.973   1.648  -2.568  1.00  0.00     0.161 HD
HETATM   15  C13 UNL     1      -5.129   3.244  -0.423  1.00  0.00     0.068 C 
HETATM   16  C14 UNL     1      -4.362   1.227   0.732  1.00  0.00     0.039 C 
HETATM   17  C15 UNL     1      -3.851  -0.149   1.025  1.00  0.00     0.010 A 
HETATM   18  C16 UNL     1      -3.731  -0.499   2.385  1.00  0.00     0.130 A 
HETATM   19  N3  UNL     1      -3.179  -1.683   2.757  1.00  0.00    -0.272 NA
HETATM   20  C17 UNL     1      -2.719  -2.574   1.845  1.00  0.00     0.118 A 
HETATM   21  C18 UNL     1      -2.811  -2.288   0.487  1.00  0.00     0.050 A 
ENDBRANCH   4   7
BRANCH   1  22
HETATM   22  C5  UNL     1       3.063  -0.108  -0.612  1.00  0.00     0.004 A 
HETATM   23  C4  UNL     1       4.050   0.074  -1.590  1.00  0.00     0.015 A 
HETATM   24  C3  UNL     1       5.377   0.309  -1.230  1.00  0.00     0.008 A 
HETATM   25  C2  UNL     1       5.758   0.364   0.119  1.00  0.00    -0.049 A 
HETATM   26  C1  UNL     1       7.204   0.622   0.457  1.00  0.00     0.049 C 
HETATM   27  C26 UNL     1       4.777   0.169   1.123  1.00  0.00    -0.001 A 
HETATM   28  C22 UNL     1       3.428  -0.069   0.750  1.00  0.00     0.078 A 
HETATM   29  C25 UNL     1       5.094   0.193   2.496  1.00  0.00     0.016 A 
HETATM   30  N4  UNL     1       2.490  -0.285   1.716  1.00  0.00    -0.259 NA
HETATM   31  C23 UNL     1       2.793  -0.264   3.039  1.00  0.00     0.117 A 
HETATM   32  C24 UNL     1       4.101  -0.022   3.452  1.00  0.00     0.020 A 
ENDBRANCH   1  22
TORSDOF 2
