REMARK  4 active torsions:
REMARK  status: ('A' for Active; 'I' for Inactive)
REMARK    1  A    between atoms: C3_5  and  C5_7 
REMARK    2  A    between atoms: N2_9  and  C7_10 
REMARK    3  A    between atoms: C10_14  and  N4_15 
REMARK       I    between atoms: N4_15  and  C11_16 
REMARK    4  A    between atoms: C11_16  and  C12_18 
ROOT
HETATM    1  C7  UNL     1      -0.633  -0.983   0.012  1.00  0.00     0.052 C 
HETATM    2  C8  UNL     1      -0.028  -2.010  -0.612  1.00  0.00     0.143 C 
HETATM    3  N3  UNL     1       1.199  -2.614  -0.168  1.00  0.00    -0.269 NA
HETATM    4  C9  UNL     1       2.226  -2.055   0.407  1.00  0.00     0.145 C 
HETATM    5  C10 UNL     1       2.361  -0.593   0.640  1.00  0.00     0.049 C 
HETATM    6  C17 UNL     1       1.314   0.168   0.983  1.00  0.00     0.010 C 
HETATM    7  C18 UNL     1      -0.040  -0.400   1.266  1.00  0.00     0.089 C 
ENDROOT
BRANCH   1   8
HETATM    8  N2  UNL     1      -1.878  -0.477  -0.510  1.00  0.00    -0.250 N 
HETATM    9  C6  UNL     1      -2.862   0.146   0.166  1.00  0.00     0.146 A 
HETATM   10  C5  UNL     1      -3.849   0.425  -0.756  1.00  0.00     0.106 A 
HETATM   11  N6  UNL     1      -3.438  -0.018  -1.961  1.00  0.00    -0.160 NA
HETATM   12  N5  UNL     1      -2.246  -0.566  -1.780  1.00  0.00     0.009 NA
BRANCH  10  13
HETATM   13  C3  UNL     1      -5.142   1.163  -0.513  1.00  0.00     0.139 A 
HETATM   14  O1  UNL     1      -5.419   1.229   0.881  1.00  0.00    -0.238 OA
HETATM   15  N1  UNL     1      -6.607   0.637   1.219  1.00  0.00    -0.142 NA
HETATM   16  C2  UNL     1      -7.168   0.164   0.162  1.00  0.00     0.039 A 
HETATM   17  C1  UNL     1      -8.473  -0.560   0.194  1.00  0.00     0.068 C 
HETATM   18  C19 UNL     1      -6.361   0.387  -1.072  1.00  0.00     0.103 A 
HETATM   19  C4  UNL     1      -5.056   2.584  -1.082  1.00  0.00     0.056 C 
ENDBRANCH  10  13
ENDBRANCH   1   8
BRANCH   5  20
HETATM   20  N4  UNL     1       3.641   0.042   0.476  1.00  0.00    -0.325 N 
HETATM   21  C11 UNL     1       4.885  -0.550   0.883  1.00  0.00     0.231 C 
HETATM   22  O2  UNL     1       4.896  -1.468   1.748  1.00  0.00    -0.272 OA
HETATM   23  H10 UNL     1       3.667   1.016   0.099  1.00  0.00     0.169 HD
BRANCH  21  24
HETATM   24  C12 UNL     1       6.194   0.027   0.391  1.00  0.00     0.050 A 
HETATM   25  C13 UNL     1       6.651   1.231   1.228  1.00  0.00     0.026 C 
HETATM   26  C14 UNL     1       6.236   0.270  -1.099  1.00  0.00     0.097 A 
HETATM   27  C15 UNL     1       7.341  -0.743  -1.338  1.00  0.00     0.129 A 
HETATM   28  O3  UNL     1       7.980  -1.161  -2.289  1.00  0.00    -0.298 OA
HETATM   29  C16 UNL     1       7.279  -0.998   0.158  1.00  0.00     0.097 A 
ENDBRANCH  21  24
ENDBRANCH   5  20
TORSDOF 4
