REMARK  5 active torsions:
REMARK  status: ('A' for Active; 'I' for Inactive)
REMARK       I    between atoms: C1_2  and  N1_3 
REMARK    1  A    between atoms: C1_2  and  C23_26 
REMARK       I    between atoms: N1_3  and  C2_4 
REMARK    2  A    between atoms: C2_4  and  C3_6 
REMARK    3  A    between atoms: C5_8  and  C22_25 
REMARK    4  A    between atoms: C10_13  and  C11_14 
REMARK    5  A    between atoms: C16_19  and  C17_20 
ROOT
HETATM    1  O1  UNL     1       0.095  -3.273   2.797  1.00  0.00    -0.267 OA
HETATM    2  C1  UNL     1      -0.150  -2.163   2.248  1.00  0.00     0.258 C 
HETATM    3  N1  UNL     1       0.927  -1.405   1.667  1.00  0.00    -0.289 N 
HETATM    4  C2  UNL     1       2.220  -1.967   1.397  1.00  0.00     0.259 C 
HETATM    5  O2  UNL     1       2.688  -2.859   2.153  1.00  0.00    -0.267 OA
HETATM    6  H1  UNL     1       0.768  -0.413   1.384  1.00  0.00     0.172 HD
ENDROOT
BRANCH   2   7
HETATM    7  C23 UNL     1      -1.555  -1.673   2.203  1.00  0.00     0.033 C 
HETATM    8  C24 UNL     1      -2.510  -2.218   3.064  1.00  0.00     0.018 C 
HETATM    9  C25 UNL     1      -3.847  -1.838   2.978  1.00  0.00     0.014 C 
HETATM   10  C26 UNL     1      -4.287  -0.885   2.027  1.00  0.00    -0.014 C 
HETATM   11  C27 UNL     1      -3.308  -0.236   1.225  1.00  0.00    -0.013 C 
HETATM   12  C40 UNL     1      -5.663  -0.541   1.880  1.00  0.00    -0.014 C 
HETATM   13  C28 UNL     1      -1.965  -0.700   1.281  1.00  0.00     0.030 C 
HETATM   14  C29 UNL     1      -3.693   0.816   0.347  1.00  0.00    -0.011 C 
HETATM   15  C30 UNL     1      -2.730   1.629  -0.302  1.00  0.00     0.013 C 
HETATM   16  C34 UNL     1      -5.072   1.096   0.125  1.00  0.00     0.025 C 
HETATM   17  C31 UNL     1      -3.101   2.550  -1.274  1.00  0.00     0.004 C 
HETATM   18  C32 UNL     1      -4.433   2.679  -1.632  1.00  0.00     0.043 C 
HETATM   19  C33 UNL     1      -5.414   1.960  -0.955  1.00  0.00     0.128 C 
HETATM   20  F1  UNL     1      -6.673   2.035  -1.457  1.00  0.00    -0.205 F 
HETATM   21  C35 UNL     1      -6.047   0.491   0.970  1.00  0.00    -0.011 C 
HETATM   22  C36 UNL     1      -7.392   0.943   0.998  1.00  0.00     0.013 C 
HETATM   23  C37 UNL     1      -8.357   0.298   1.761  1.00  0.00     0.001 C 
HETATM   24  C38 UNL     1      -8.013  -0.797   2.532  1.00  0.00     0.001 C 
HETATM   25  C39 UNL     1      -6.686  -1.209   2.606  1.00  0.00     0.013 C 
ENDBRANCH   2   7
BRANCH   4  26
HETATM   26  C3  UNL     1       2.991  -1.520   0.214  1.00  0.00     0.044 C 
HETATM   27  C4  UNL     1       4.244  -1.909  -0.001  1.00  0.00     0.030 C 
HETATM   28  C5  UNL     1       4.913  -1.468  -1.236  1.00  0.00    -0.024 C 
HETATM   29  C6  UNL     1       4.681  -2.070  -2.414  1.00  0.00     0.012 C 
HETATM   30  C7  UNL     1       3.606  -3.077  -2.570  1.00  0.00     0.001 C 
HETATM   31  C8  UNL     1       2.315  -2.793  -2.313  1.00  0.00     0.001 C 
HETATM   32  C9  UNL     1       1.870  -1.425  -1.959  1.00  0.00     0.013 C 
HETATM   33  C10 UNL     1       2.319  -0.775  -0.864  1.00  0.00    -0.009 C 
BRANCH  28  34
HETATM   34  C22 UNL     1       5.644  -0.209  -1.147  1.00  0.00    -0.015 C 
HETATM   35  C17 UNL     1       5.050   0.985  -0.610  1.00  0.00    -0.014 C 
HETATM   36  C18 UNL     1       5.935   1.883   0.039  1.00  0.00     0.013 C 
HETATM   37  C19 UNL     1       7.321   1.728  -0.025  1.00  0.00     0.001 C 
HETATM   38  C20 UNL     1       7.872   0.654  -0.711  1.00  0.00     0.001 C 
HETATM   39  C21 UNL     1       7.041  -0.322  -1.246  1.00  0.00     0.013 C 
BRANCH  35  40
HETATM   40  C16 UNL     1       3.609   1.474  -0.836  1.00  0.00    -0.014 A 
HETATM   41  C11 UNL     1       2.390   0.696  -0.889  1.00  0.00    -0.014 A 
HETATM   42  C12 UNL     1       1.153   1.343  -1.081  1.00  0.00     0.013 A 
HETATM   43  C13 UNL     1       1.070   2.725  -1.213  1.00  0.00     0.001 A 
HETATM   44  C14 UNL     1       2.225   3.485  -1.216  1.00  0.00     0.001 A 
HETATM   45  C15 UNL     1       3.467   2.874  -1.055  1.00  0.00     0.013 A 
ENDBRANCH  35  40
ENDBRANCH  28  34
ENDBRANCH   4  26
TORSDOF 5
