REMARK  4 active torsions:
REMARK  status: ('A' for Active; 'I' for Inactive)
REMARK    1  A    between atoms: C3_3  and  C4_4 
REMARK    2  A    between atoms: C4_4  and  O2_6 
REMARK    3  A    between atoms: O2_6  and  C5_7 
REMARK    4  A    between atoms: C5_7  and  C6_8 
ROOT
HETATM    1  C1  UNL     1      -0.985  -2.071   0.508  1.00  0.00     0.051 C 
HETATM    2  C2  UNL     1      -1.019  -0.555   0.571  1.00  0.00    -0.022 C 
HETATM    3  C3  UNL     1       0.133   0.157   0.975  1.00  0.00     0.052 C 
HETATM    4  C12 UNL     1       0.032   1.525   1.209  1.00  0.00     0.093 C 
HETATM    5  C13 UNL     1      -1.174   2.188   1.021  1.00  0.00     0.255 C 
HETATM    6  O3  UNL     1      -1.227   3.415   1.312  1.00  0.00    -0.268 OA
HETATM    7  N1  UNL     1      -2.279   1.526   0.541  1.00  0.00    -0.252 N 
HETATM    8  C14 UNL     1      -2.207   0.169   0.246  1.00  0.00     0.030 C 
HETATM    9  C15 UNL     1      -3.372  -0.609  -0.389  1.00  0.00     0.058 C 
HETATM   10  C16 UNL     1      -4.286   0.194  -1.325  1.00  0.00     0.006 C 
HETATM   11  C17 UNL     1      -5.376   0.962  -0.562  1.00  0.00     0.010 C 
HETATM   12  C18 UNL     1      -4.837   1.677   0.678  1.00  0.00     0.104 C 
HETATM   13  C19 UNL     1      -3.504   2.287   0.384  1.00  0.00     0.231 C 
HETATM   14  O4  UNL     1      -3.468   3.466  -0.065  1.00  0.00    -0.273 OA
ENDROOT
BRANCH   3  15
HETATM   15  C4  UNL     1       1.460  -0.486   1.140  1.00  0.00     0.294 C 
HETATM   16  O1  UNL     1       2.263  -0.051   2.011  1.00  0.00    -0.259 OA
BRANCH  15  17
HETATM   17  O2  UNL     1       1.838  -1.541   0.301  1.00  0.00    -0.313 OA
BRANCH  17  18
HETATM   18  C5  UNL     1       3.120  -2.163   0.351  1.00  0.00     0.217 C 
BRANCH  18  19
HETATM   19  C6  UNL     1       4.170  -1.245  -0.212  1.00  0.00    -0.034 A 
HETATM   20  C7  UNL     1       4.153  -0.915  -1.577  1.00  0.00     0.009 A 
HETATM   21  C8  UNL     1       5.114  -0.046  -2.103  1.00  0.00     0.001 A 
HETATM   22  C9  UNL     1       6.095   0.501  -1.271  1.00  0.00     0.000 A 
HETATM   23  C10 UNL     1       6.115   0.180   0.089  1.00  0.00     0.001 A 
HETATM   24  C11 UNL     1       5.156  -0.688   0.620  1.00  0.00     0.009 A 
ENDBRANCH  18  19
ENDBRANCH  17  18
ENDBRANCH  15  17
ENDBRANCH   3  15
TORSDOF 4
