REMARK  2 active torsions:
REMARK  status: ('A' for Active; 'I' for Inactive)
REMARK    1  A    between atoms: C6_8  and  S1_9 
REMARK    2  A    between atoms: S1_9  and  N2_12 
ROOT
HETATM    1  S1  UNL     1       0.378  -2.470   0.531  1.00  0.00     0.243 S 
HETATM    2  O2  UNL     1       0.249  -3.350   1.743  1.00  0.00    -0.206 OA
HETATM    3  O3  UNL     1       0.803  -3.333  -0.624  1.00  0.00    -0.206 OA
ENDROOT
BRANCH   1   4
HETATM    4  C6  UNL     1       1.613  -1.246   0.830  1.00  0.00     0.075 A 
HETATM    5  C5  UNL     1       1.800  -0.731   2.134  1.00  0.00     0.025 A 
HETATM    6  C4  UNL     1       2.767   0.259   2.379  1.00  0.00     0.011 A 
HETATM    7  C3  UNL     1       3.535   0.720   1.311  1.00  0.00    -0.025 A 
HETATM    8  C2  UNL     1       4.613   1.767   1.324  1.00  0.00     0.162 A 
HETATM    9  C15 UNL     1       3.349   0.217   0.043  1.00  0.00     0.041 A 
HETATM   10  N1  UNL     1       5.044   1.828  -0.075  1.00  0.00    -0.353 N 
HETATM   11  C1  UNL     1       4.277   0.895  -0.825  1.00  0.00     0.252 A 
HETATM   12  H1  UNL     1       5.788   2.452  -0.457  1.00  0.00     0.163 HD
HETATM   13  O1  UNL     1       4.407   0.708  -2.063  1.00  0.00    -0.268 OA
HETATM   14  C14 UNL     1       2.400  -0.764  -0.234  1.00  0.00     0.042 A 
ENDBRANCH   1   4
BRANCH   1  15
HETATM   15  N2  UNL     1      -1.167  -1.731   0.178  1.00  0.00    -0.204 NA
HETATM   16  C7  UNL     1      -1.581  -0.874   1.305  1.00  0.00     0.134 C 
HETATM   17  C8  UNL     1      -3.104  -0.631   1.259  1.00  0.00     0.183 C 
HETATM   18  O4  UNL     1      -3.529   0.529   0.558  1.00  0.00    -0.382 OA
HETATM   19  C9  UNL     1      -2.799   0.827  -0.624  1.00  0.00     0.156 C 
HETATM   20  C10 UNL     1      -3.657   1.679  -1.552  1.00  0.00     0.301 C 
HETATM   21  C12 UNL     1      -2.421  -0.369  -1.494  1.00  0.00     0.058 C 
HETATM   22  N3  UNL     1      -3.315   1.346  -2.938  1.00  0.00     0.086 N 
HETATM   23  C11 UNL     1      -2.380   0.222  -2.897  1.00  0.00     0.278 C 
HETATM   24  H13 UNL     1      -4.186   1.034  -3.430  1.00  0.00     0.315 HD
HETATM   25  C13 UNL     1      -1.067  -0.979  -1.086  1.00  0.00     0.116 C 
ENDBRANCH   1  15
TORSDOF 2
