REMARK  2 active torsions:
REMARK  status: ('A' for Active; 'I' for Inactive)
REMARK       I    between atoms: C1_2  and  N1_3 
REMARK    1  A    between atoms: C1_2  and  C22_25 
REMARK       I    between atoms: N1_3  and  C2_4 
REMARK    2  A    between atoms: C2_4  and  C3_6 
ROOT
HETATM    1  C22 UNL     1      -1.159  -1.121  -1.478  1.00  0.00     0.033 A 
HETATM    2  C23 UNL     1      -2.403  -1.756  -1.400  1.00  0.00     0.030 A 
HETATM    3  C24 UNL     1      -3.601  -1.033  -1.546  1.00  0.00    -0.018 A 
HETATM    4  C25 UNL     1      -3.537   0.350  -1.849  1.00  0.00    -0.047 A 
HETATM    5  C26 UNL     1      -2.281   0.972  -1.946  1.00  0.00     0.009 A 
HETATM    6  C27 UNL     1      -1.108   0.252  -1.729  1.00  0.00     0.017 A 
HETATM    7  C28 UNL     1      -4.767   1.203  -2.025  1.00  0.00     0.044 C 
HETATM    8  C29 UNL     1      -4.855   2.288  -0.939  1.00  0.00     0.044 C 
HETATM    9  C30 UNL     1      -4.353   1.801   0.406  1.00  0.00    -0.047 A 
HETATM   10  C31 UNL     1      -3.126   2.295   0.891  1.00  0.00     0.008 A 
HETATM   11  C32 UNL     1      -2.551   1.765   2.048  1.00  0.00     0.001 A 
HETATM   12  C33 UNL     1      -3.195   0.740   2.741  1.00  0.00     0.001 A 
HETATM   13  C34 UNL     1      -4.417   0.249   2.281  1.00  0.00     0.013 A 
HETATM   14  C35 UNL     1      -5.003   0.766   1.116  1.00  0.00    -0.019 A 
HETATM   15  C36 UNL     1      -6.332   0.260   0.727  1.00  0.00    -0.014 A 
HETATM   16  C37 UNL     1      -7.443   1.095   0.911  1.00  0.00     0.013 A 
HETATM   17  C38 UNL     1      -8.743   0.620   0.713  1.00  0.00     0.001 A 
HETATM   18  C39 UNL     1      -8.944  -0.709   0.354  1.00  0.00     0.001 A 
HETATM   19  C40 UNL     1      -7.848  -1.544   0.130  1.00  0.00     0.013 A 
HETATM   20  C41 UNL     1      -6.530  -1.066   0.269  1.00  0.00    -0.014 A 
HETATM   21  C42 UNL     1      -5.423  -1.966  -0.122  1.00  0.00    -0.014 C 
HETATM   22  C43 UNL     1      -5.529  -3.279   0.374  1.00  0.00     0.013 C 
HETATM   23  C44 UNL     1      -5.492  -4.364  -0.505  1.00  0.00     0.001 C 
HETATM   24  C45 UNL     1      -5.283  -4.145  -1.865  1.00  0.00     0.001 C 
HETATM   25  C46 UNL     1      -4.960  -2.863  -2.314  1.00  0.00     0.013 C 
HETATM   26  C47 UNL     1      -4.857  -1.803  -1.411  1.00  0.00    -0.014 C 
ENDROOT
BRANCH   1  27
HETATM   27  C1  UNL     1       0.074  -1.906  -1.314  1.00  0.00     0.258 C 
HETATM   28  O1  UNL     1       0.150  -3.057  -1.818  1.00  0.00    -0.267 OA
HETATM   29  N1  UNL     1       1.176  -1.365  -0.578  1.00  0.00    -0.289 N 
HETATM   30  C2  UNL     1       2.511  -1.890  -0.677  1.00  0.00     0.258 C 
HETATM   31  H1  UNL     1       0.979  -0.585   0.083  1.00  0.00     0.172 HD
HETATM   32  O2  UNL     1       2.823  -2.631  -1.644  1.00  0.00    -0.267 OA
BRANCH  30  33
HETATM   33  C3  UNL     1       3.577  -1.440   0.240  1.00  0.00     0.033 C 
HETATM   34  C4  UNL     1       4.620  -2.306   0.595  1.00  0.00     0.018 C 
HETATM   35  C5  UNL     1       5.734  -1.822   1.261  1.00  0.00     0.014 C 
HETATM   36  C6  UNL     1       5.875  -0.444   1.511  1.00  0.00    -0.018 C 
HETATM   37  C7  UNL     1       4.770   0.404   1.273  1.00  0.00    -0.042 C 
HETATM   38  C21 UNL     1       7.217   0.091   1.830  1.00  0.00    -0.014 A 
HETATM   39  C8  UNL     1       3.639  -0.100   0.630  1.00  0.00     0.025 C 
HETATM   40  C9  UNL     1       4.930   1.892   1.368  1.00  0.00     0.078 C 
HETATM   41  C10 UNL     1       5.716   2.299   0.164  1.00  0.00    -0.043 A 
HETATM   42  C11 UNL     1       5.060   2.884  -0.928  1.00  0.00     0.008 A 
HETATM   43  C15 UNL     1       7.064   1.890   0.035  1.00  0.00    -0.018 A 
HETATM   44  C12 UNL     1       5.733   3.057  -2.138  1.00  0.00     0.001 A 
HETATM   45  C13 UNL     1       7.068   2.658  -2.264  1.00  0.00     0.001 A 
HETATM   46  C14 UNL     1       7.729   2.097  -1.180  1.00  0.00     0.013 A 
HETATM   47  C16 UNL     1       7.780   1.193   1.126  1.00  0.00    -0.014 A 
HETATM   48  C17 UNL     1       9.099   1.587   1.404  1.00  0.00     0.013 A 
HETATM   49  C18 UNL     1       9.848   0.933   2.370  1.00  0.00     0.001 A 
HETATM   50  C19 UNL     1       9.298  -0.154   3.054  1.00  0.00     0.001 A 
HETATM   51  C20 UNL     1       8.002  -0.573   2.784  1.00  0.00     0.013 A 
ENDBRANCH  30  33
ENDBRANCH   1  27
TORSDOF 2
