REMARK  2 active torsions:
REMARK  status: ('A' for Active; 'I' for Inactive)
REMARK    1  A    between atoms: N1_1  and  C1_2 
REMARK    2  A    between atoms: C4_7  and  N4_8 
ROOT
HETATM    1  N4  UNL     1      -1.275   1.011   0.175  1.00  0.00    -0.343 N 
HETATM    2  C5  UNL     1      -1.211   2.337   0.790  1.00  0.00     0.137 C 
HETATM    3  C6  UNL     1      -0.332   2.264   2.030  1.00  0.00     0.104 C 
HETATM    4  C7  UNL     1       1.007   1.670   1.701  1.00  0.00     0.163 C 
HETATM    5  O1  UNL     1       1.934   1.795   2.547  1.00  0.00    -0.292 OA
HETATM    6  C8  UNL     1       1.236   0.917   0.429  1.00  0.00     0.037 C 
HETATM    7  C9  UNL     1       2.532   0.880  -0.010  1.00  0.00     0.026 C 
HETATM    8  C10 UNL     1       3.067   0.206  -1.201  1.00  0.00    -0.043 C 
HETATM    9  C11 UNL     1       2.385   0.293  -2.339  1.00  0.00    -0.008 C 
HETATM   10  C12 UNL     1       1.579  -0.876  -2.703  1.00  0.00     0.059 C 
HETATM   11  C13 UNL     1       0.963  -1.462  -1.669  1.00  0.00     0.020 C 
HETATM   12  C14 UNL     1       1.710  -2.320  -0.721  1.00  0.00     0.248 C 
HETATM   13  O2  UNL     1       1.080  -3.213  -0.094  1.00  0.00    -0.268 OA
HETATM   14  N5  UNL     1       3.109  -2.133  -0.449  1.00  0.00    -0.353 N 
HETATM   15  C15 UNL     1       3.912  -1.019  -0.957  1.00  0.00     0.161 C 
HETATM   16  C16 UNL     1      -0.139  -0.682  -1.099  1.00  0.00     0.044 C 
HETATM   17  C17 UNL     1      -0.036   0.371  -0.235  1.00  0.00     0.049 C 
HETATM   18  H12 UNL     1       3.589  -2.836   0.157  1.00  0.00     0.163 HD
ENDROOT
BRANCH   1  19
HETATM   19  C4  UNL     1      -2.552   0.343   0.127  1.00  0.00     0.082 A 
HETATM   20  C1  UNL     1      -2.813  -0.812   0.888  1.00  0.00     0.074 A 
HETATM   21  C2  UNL     1      -4.064  -1.427   0.767  1.00  0.00     0.172 A 
HETATM   22  N2  UNL     1      -5.000  -0.895  -0.060  1.00  0.00    -0.161 NA
HETATM   23  N3  UNL     1      -4.758   0.208  -0.769  1.00  0.00    -0.161 NA
HETATM   24  C3  UNL     1      -3.562   0.847  -0.699  1.00  0.00     0.173 A 
BRANCH  20  25
HETATM   25  N1  UNL     1      -1.844  -1.350   1.797  1.00  0.00    -0.396 N 
HETATM   26  H1  UNL     1      -2.042  -2.230   2.324  1.00  0.00     0.156 HD
HETATM   27  H2  UNL     1      -0.943  -0.864   1.991  1.00  0.00     0.156 HD
ENDBRANCH  20  25
ENDBRANCH   1  19
TORSDOF 2
