REMARK  3 active torsions:
REMARK  status: ('A' for Active; 'I' for Inactive)
REMARK    1  A    between atoms: C4_5  and  C5_6 
REMARK       I    between atoms: C5_6  and  N2_8 
REMARK    2  A    between atoms: C16_20  and  S1_21 
REMARK    3  A    between atoms: S1_21  and  N3_22 
ROOT
HETATM    1  C1  UNL     1       5.489  -0.121  -0.237  1.00  0.00     0.072 C 
HETATM    2  C2  UNL     1       4.000  -0.262  -0.355  1.00  0.00     0.053 A 
HETATM    3  N1  UNL     1       3.405  -1.321   0.261  1.00  0.00    -0.263 NA
HETATM    4  C3  UNL     1       2.064  -1.524   0.225  1.00  0.00     0.134 A 
HETATM    5  C4  UNL     1       1.232  -0.619  -0.446  1.00  0.00     0.051 A 
HETATM    6  C15 UNL     1       1.822   0.451  -1.133  1.00  0.00     0.045 A 
HETATM    7  C16 UNL     1       3.211   0.638  -1.105  1.00  0.00     0.099 A 
ENDROOT
BRANCH   5   8
HETATM    8  C5  UNL     1      -0.239  -0.799  -0.473  1.00  0.00     0.255 C 
HETATM    9  O1  UNL     1      -0.859  -0.523  -1.536  1.00  0.00    -0.267 OA
HETATM   10  N2  UNL     1      -0.977  -1.270   0.678  1.00  0.00    -0.342 N 
HETATM   11  C6  UNL     1      -0.476  -1.038   2.040  1.00  0.00     0.153 C 
HETATM   12  C14 UNL     1      -2.319  -1.834   0.487  1.00  0.00     0.167 C 
HETATM   13  C7  UNL     1      -1.597  -0.694   3.025  1.00  0.00     0.195 C 
HETATM   14  O2  UNL     1      -2.402   0.376   2.540  1.00  0.00    -0.349 OA
HETATM   15  C8  UNL     1      -3.343   0.294   1.499  1.00  0.00     0.076 A 
HETATM   16  C9  UNL     1      -4.303   1.311   1.431  1.00  0.00     0.037 A 
HETATM   17  C13 UNL     1      -3.358  -0.740   0.523  1.00  0.00    -0.007 A 
HETATM   18  C10 UNL     1      -5.291   1.300   0.446  1.00  0.00     0.003 A 
HETATM   19  C11 UNL     1      -5.331   0.268  -0.489  1.00  0.00     0.001 A 
HETATM   20  C12 UNL     1      -4.373  -0.746  -0.452  1.00  0.00     0.011 A 
ENDBRANCH   5   8
BRANCH   7  21
HETATM   21  S1  UNL     1       3.907   2.002  -1.994  1.00  0.00     0.241 S 
HETATM   22  O3  UNL     1       5.167   1.584  -2.696  1.00  0.00    -0.206 OA
HETATM   23  O4  UNL     1       4.209   3.120  -1.039  1.00  0.00    -0.206 OA
BRANCH  21  24
HETATM   24  N3  UNL     1       2.785   2.574  -3.180  1.00  0.00    -0.225 NA
HETATM   25  H16 UNL     1       3.219   3.410  -3.634  1.00  0.00     0.136 HD
HETATM   26  H17 UNL     1       2.708   1.837  -3.916  1.00  0.00     0.136 HD
ENDBRANCH  21  24
ENDBRANCH   7  21
TORSDOF 3
