REMARK  4 active torsions:
REMARK  status: ('A' for Active; 'I' for Inactive)
REMARK    1  A    between atoms: O1_2  and  C2_3 
REMARK    2  A    between atoms: C12_13  and  N1_14 
REMARK    3  A    between atoms: N1_14  and  S1_15 
REMARK    4  A    between atoms: S1_15  and  C13_18 
ROOT
HETATM    1  C2  UNL     1      -0.986   0.412   0.936  1.00  0.00     0.076 C 
HETATM    2  C3  UNL     1      -2.333   0.412   1.134  1.00  0.00     0.037 C 
HETATM    3  C4  UNL     1      -3.509  -0.031   0.311  1.00  0.00     0.003 C 
HETATM    4  C5  UNL     1      -3.637  -0.584  -0.911  1.00  0.00     0.007 C 
HETATM    5  C6  UNL     1      -2.561  -0.913  -1.842  1.00  0.00    -0.058 C 
HETATM    6  C7  UNL     1      -2.074  -2.165  -1.853  1.00  0.00     0.007 C 
HETATM    7  C8  UNL     1      -0.701  -2.454  -2.306  1.00  0.00     0.001 C 
HETATM    8  C9  UNL     1       0.345  -2.068  -1.563  1.00  0.00     0.001 C 
HETATM    9  C10 UNL     1       0.128  -1.333  -0.303  1.00  0.00     0.011 C 
HETATM   10  C11 UNL     1      -0.322  -0.064  -0.287  1.00  0.00    -0.006 C 
HETATM   11  C12 UNL     1      -0.078   0.896  -1.456  1.00  0.00     0.107 C 
HETATM   12  C16 UNL     1      -1.398   1.318  -2.114  1.00  0.00     0.030 C 
HETATM   13  C17 UNL     1      -2.101   0.150  -2.813  1.00  0.00     0.040 C 
ENDROOT
BRANCH  11  14
HETATM   14  N1  UNL     1       0.644   2.111  -1.035  1.00  0.00    -0.204 NA
HETATM   15  H12 UNL     1       0.336   2.440  -0.092  1.00  0.00     0.140 HD
BRANCH  14  16
HETATM   16  S1  UNL     1       2.370   1.877  -1.015  1.00  0.00     0.279 S 
HETATM   17  O2  UNL     1       2.846   1.502  -2.390  1.00  0.00    -0.203 OA
HETATM   18  O3  UNL     1       3.036   3.163  -0.613  1.00  0.00    -0.203 OA
BRANCH  16  19
HETATM   19  C13 UNL     1       2.835   0.627   0.120  1.00  0.00     0.281 A 
HETATM   20  N2  UNL     1       3.286  -0.591  -0.254  1.00  0.00    -0.210 NA
HETATM   21  C14 UNL     1       3.495  -1.191   0.934  1.00  0.00     0.231 A 
HETATM   22  N3  UNL     1       3.178  -0.374   1.953  1.00  0.00    -0.265 N 
HETATM   23  C15 UNL     1       3.328  -0.655   3.373  1.00  0.00     0.181 C 
HETATM   24  N4  UNL     1       2.778   0.780   1.456  1.00  0.00    -0.138 NA
ENDBRANCH  16  19
ENDBRANCH  14  16
ENDBRANCH  11  14
BRANCH   1  25
HETATM   25  O1  UNL     1      -0.105   0.862   1.937  1.00  0.00    -0.355 OA
HETATM   26  C1  UNL     1      -0.476   1.367   3.216  1.00  0.00     0.210 C 
ENDBRANCH   1  25
TORSDOF 4
