REMARK  4 active torsions:
REMARK  status: ('A' for Active; 'I' for Inactive)
REMARK    1  A    between atoms: N1_2  and  C3_4 
REMARK    2  A    between atoms: C6_8  and  N3_9 
REMARK       I    between atoms: N3_9  and  C7_10 
REMARK    3  A    between atoms: C7_10  and  C8_12 
REMARK    4  A    between atoms: C16_23  and  C17_24 
ROOT
HETATM    1  C8  UNL     1      -1.478   1.341   0.239  1.00  0.00     0.202 C 
HETATM    2  N4  UNL     1      -2.115   2.336   1.114  1.00  0.00    -0.374 N 
HETATM    3  C9  UNL     1      -3.534   2.539   1.212  1.00  0.00     0.044 A 
HETATM    4  C10 UNL     1      -4.052   3.821   0.968  1.00  0.00     0.030 A 
HETATM    5  C11 UNL     1      -5.413   4.080   1.131  1.00  0.00     0.002 A 
HETATM    6  C12 UNL     1      -6.270   3.067   1.561  1.00  0.00     0.001 A 
HETATM    7  C13 UNL     1      -5.768   1.793   1.831  1.00  0.00     0.019 A 
HETATM    8  C14 UNL     1      -4.401   1.511   1.657  1.00  0.00     0.058 A 
HETATM    9  C15 UNL     1      -3.902   0.153   1.970  1.00  0.00     0.254 C 
HETATM   10  O2  UNL     1      -4.408  -0.484   2.934  1.00  0.00    -0.268 OA
HETATM   11  N5  UNL     1      -2.889  -0.478   1.175  1.00  0.00    -0.346 N 
HETATM   12  C16 UNL     1      -2.394   0.128  -0.066  1.00  0.00     0.149 C 
HETATM   13  H11 UNL     1      -1.512   3.146   1.390  1.00  0.00     0.160 HD
HETATM   14  H16 UNL     1      -2.610  -1.447   1.445  1.00  0.00     0.163 HD
ENDROOT
BRANCH   1  15
HETATM   15  C7  UNL     1      -0.167   0.910   0.851  1.00  0.00     0.248 C 
HETATM   16  N3  UNL     1       0.994   0.750   0.019  1.00  0.00    -0.308 N 
HETATM   17  H9  UNL     1       0.946   1.152  -0.943  1.00  0.00     0.170 HD
HETATM   18  O1  UNL     1      -0.114   0.650   2.085  1.00  0.00    -0.271 OA
BRANCH  16  19
HETATM   19  C6  UNL     1       2.132  -0.056   0.381  1.00  0.00     0.154 A 
HETATM   20  N2  UNL     1       2.090  -0.821   1.508  1.00  0.00    -0.241 NA
HETATM   21  C5  UNL     1       3.116  -1.626   1.881  1.00  0.00     0.121 A 
HETATM   22  C4  UNL     1       4.264  -1.702   1.095  1.00  0.00     0.050 A 
HETATM   23  C3  UNL     1       4.351  -0.940  -0.076  1.00  0.00     0.056 A 
HETATM   24  C23 UNL     1       3.280  -0.102  -0.439  1.00  0.00     0.106 A 
HETATM   25 CL1  UNL     1       3.417   0.917  -1.875  1.00  0.00    -0.078 Cl
BRANCH  23  26
HETATM   26  N1  UNL     1       5.529  -1.023  -0.897  1.00  0.00    -0.388 N 
HETATM   27  C1  UNL     1       5.467  -1.761  -2.160  1.00  0.00     0.149 C 
HETATM   28  C2  UNL     1       6.841  -0.771  -0.301  1.00  0.00     0.149 C 
ENDBRANCH  23  26
ENDBRANCH  16  19
ENDBRANCH   1  15
BRANCH  12  29
HETATM   29  C17 UNL     1      -1.708  -0.888  -0.974  1.00  0.00    -0.033 A 
HETATM   30  C18 UNL     1      -0.795  -1.841  -0.474  1.00  0.00     0.009 A 
HETATM   31  C19 UNL     1      -0.120  -2.703  -1.342  1.00  0.00     0.001 A 
HETATM   32  C20 UNL     1      -0.342  -2.628  -2.718  1.00  0.00     0.000 A 
HETATM   33  C21 UNL     1      -1.237  -1.686  -3.229  1.00  0.00     0.001 A 
HETATM   34  C22 UNL     1      -1.911  -0.817  -2.366  1.00  0.00     0.009 A 
ENDBRANCH  12  29
TORSDOF 4
