REMARK  4 active torsions:
REMARK  status: ('A' for Active; 'I' for Inactive)
REMARK       I    between atoms: C1_2  and  N1_3 
REMARK       I    between atoms: C1_2  and  N2_16 
REMARK    1  A    between atoms: N1_3  and  C2_4 
REMARK    2  A    between atoms: N1_3  and  C8_10 
REMARK    3  A    between atoms: C12_17  and  C13_18 
REMARK    4  A    between atoms: C13_18  and  N3_19 
ROOT
HETATM    1  O1  UNL     1      -0.403  -1.809   1.057  1.00  0.00    -0.246 OA
HETATM    2  C1  UNL     1      -0.067  -0.758   0.444  1.00  0.00     0.330 C 
HETATM    3  N1  UNL     1       1.350  -0.439   0.312  1.00  0.00    -0.294 N 
HETATM    4  N2  UNL     1      -1.125   0.078  -0.087  1.00  0.00    -0.291 N 
HETATM    5  C12 UNL     1      -1.057   0.569  -1.495  1.00  0.00     0.150 C 
HETATM    6  C14 UNL     1      -2.432   0.979  -2.023  1.00  0.00     0.297 C 
HETATM    7  N4  UNL     1      -3.336  -0.154  -1.834  1.00  0.00     0.089 N 
HETATM    8  C15 UNL     1      -4.230   0.048  -0.699  1.00  0.00     0.310 C 
HETATM    9  C16 UNL     1      -3.562   0.525   0.580  1.00  0.00    -0.003 A 
HETATM   10  C17 UNL     1      -4.458   0.955   1.579  1.00  0.00     0.011 A 
HETATM   11  C18 UNL     1      -4.014   1.321   2.844  1.00  0.00     0.001 A 
HETATM   12  C19 UNL     1      -2.666   1.234   3.154  1.00  0.00     0.002 A 
HETATM   13  C20 UNL     1      -1.754   0.810   2.190  1.00  0.00     0.030 A 
HETATM   14  C21 UNL     1      -2.155   0.490   0.870  1.00  0.00     0.047 A 
HETATM   15  H18 UNL     1      -3.926  -0.263  -2.692  1.00  0.00     0.316 HD
ENDROOT
BRANCH   5  16
HETATM   16  C13 UNL     1      -0.450  -0.502  -2.451  1.00  0.00     0.294 C 
BRANCH  16  17
HETATM   17  N3  UNL     1      -0.230   0.052  -3.785  1.00  0.00     0.080 N 
HETATM   18  H14 UNL     1       0.108  -0.722  -4.402  1.00  0.00     0.312 HD
HETATM   19  H15 UNL     1       0.550   0.747  -3.725  1.00  0.00     0.312 HD
ENDBRANCH  16  17
ENDBRANCH   5  16
BRANCH   3  20
HETATM   20  C2  UNL     1       2.272  -1.542   0.430  1.00  0.00     0.039 A 
HETATM   21  C3  UNL     1       2.458  -2.179   1.668  1.00  0.00     0.030 A 
HETATM   22  C4  UNL     1       3.365  -3.236   1.788  1.00  0.00     0.002 A 
HETATM   23  C5  UNL     1       4.096  -3.660   0.675  1.00  0.00     0.000 A 
HETATM   24  C6  UNL     1       3.924  -3.026  -0.559  1.00  0.00     0.002 A 
HETATM   25  C7  UNL     1       3.018  -1.968  -0.682  1.00  0.00     0.030 A 
ENDBRANCH   3  20
BRANCH   3  26
HETATM   26  C8  UNL     1       1.862   0.851  -0.214  1.00  0.00     0.106 A 
HETATM   27  C9  UNL     1       3.280   1.207   0.267  1.00  0.00     0.105 A 
HETATM   28  C10 UNL     1       2.740   2.457   0.937  1.00  0.00     0.247 A 
HETATM   29  F1  UNL     1       2.901   2.447   2.313  1.00  0.00    -0.206 F 
HETATM   30  F2  UNL     1       3.203   3.625   0.353  1.00  0.00    -0.206 F 
HETATM   31  C11 UNL     1       1.330   2.097   0.502  1.00  0.00     0.105 A 
ENDBRANCH   3  26
TORSDOF 4
