REMARK  0 active torsions:
REMARK  status: ('A' for Active; 'I' for Inactive)
ROOT
HETATM    1  O1  UNL     1       3.159   3.431   1.376  1.00  0.00    -0.273 OA
HETATM    2  C1  UNL     1       1.938   3.131   1.476  1.00  0.00     0.228 C 
HETATM    3  N1  UNL     1       0.959   4.186   1.481  1.00  0.00    -0.292 N 
HETATM    4  C2  UNL     1      -0.451   3.934   1.446  1.00  0.00     0.274 C 
HETATM    5  O2  UNL     1      -1.174   4.303   2.410  1.00  0.00    -0.266 OA
HETATM    6  C3  UNL     1      -1.056   3.245   0.293  1.00  0.00     0.104 C 
HETATM    7  C4  UNL     1      -1.898   2.149   0.493  1.00  0.00     0.048 C 
HETATM    8  C5  UNL     1      -2.307   1.363  -0.594  1.00  0.00    -0.011 C 
HETATM    9  C6  UNL     1      -2.000   1.812  -1.908  1.00  0.00     0.017 C 
HETATM   10  C7  UNL     1      -1.247   2.996  -2.060  1.00  0.00     0.252 C 
HETATM   11  O3  UNL     1      -1.013   3.463  -3.209  1.00  0.00    -0.268 OA
HETATM   12  N2  UNL     1      -0.747   3.638  -0.971  1.00  0.00    -0.319 N 
HETATM   13  C8  UNL     1      -2.492   1.078  -3.137  1.00  0.00     0.055 C 
HETATM   14  C9  UNL     1       1.529   1.699   1.714  1.00  0.00     0.142 C 
HETATM   15  C10 UNL     1       2.643   0.687   1.530  1.00  0.00    -0.038 A 
HETATM   16  C11 UNL     1       3.505   0.427   2.609  1.00  0.00     0.008 A 
HETATM   17  C12 UNL     1       4.449  -0.599   2.533  1.00  0.00     0.001 A 
HETATM   18  C13 UNL     1       4.545  -1.378   1.379  1.00  0.00     0.001 A 
HETATM   19  C14 UNL     1       3.712  -1.123   0.289  1.00  0.00     0.013 A 
HETATM   20  C15 UNL     1       2.759  -0.093   0.348  1.00  0.00    -0.018 A 
HETATM   21  C16 UNL     1       2.011   0.254  -0.880  1.00  0.00    -0.014 A 
HETATM   22  C17 UNL     1       2.321   1.487  -1.482  1.00  0.00     0.013 A 
HETATM   23  C18 UNL     1       1.796   1.830  -2.725  1.00  0.00     0.001 A 
HETATM   24  C19 UNL     1       0.941   0.953  -3.381  1.00  0.00     0.001 A 
HETATM   25  C20 UNL     1       0.586  -0.256  -2.784  1.00  0.00     0.013 A 
HETATM   26  C21 UNL     1       1.117  -0.638  -1.536  1.00  0.00    -0.014 A 
HETATM   27  C22 UNL     1       0.878  -2.049  -1.119  1.00  0.00    -0.014 A 
HETATM   28  C23 UNL     1       1.304  -3.048  -2.019  1.00  0.00     0.013 A 
HETATM   29  C24 UNL     1       0.997  -4.391  -1.807  1.00  0.00     0.001 A 
HETATM   30  C25 UNL     1       0.257  -4.767  -0.693  1.00  0.00     0.001 A 
HETATM   31  C26 UNL     1      -0.160  -3.804   0.223  1.00  0.00     0.013 A 
HETATM   32  C27 UNL     1       0.132  -2.440   0.029  1.00  0.00    -0.014 A 
HETATM   33  C28 UNL     1      -0.174  -1.543   1.164  1.00  0.00    -0.014 A 
HETATM   34  C29 UNL     1       0.708  -1.612   2.259  1.00  0.00     0.013 A 
HETATM   35  C30 UNL     1       0.395  -1.011   3.476  1.00  0.00     0.001 A 
HETATM   36  C31 UNL     1      -0.829  -0.372   3.639  1.00  0.00     0.001 A 
HETATM   37  C32 UNL     1      -1.744  -0.344   2.588  1.00  0.00     0.013 A 
HETATM   38  C33 UNL     1      -1.428  -0.893   1.330  1.00  0.00    -0.014 A 
HETATM   39  C34 UNL     1      -2.545  -1.012   0.360  1.00  0.00    -0.014 A 
HETATM   40  C35 UNL     1      -3.263  -2.221   0.372  1.00  0.00     0.013 A 
HETATM   41  C36 UNL     1      -4.485  -2.336  -0.287  1.00  0.00     0.001 A 
HETATM   42  C37 UNL     1      -5.035  -1.233  -0.932  1.00  0.00     0.001 A 
HETATM   43  C38 UNL     1      -4.344  -0.022  -0.959  1.00  0.00     0.013 A 
HETATM   44  C39 UNL     1      -3.074   0.101  -0.362  1.00  0.00    -0.014 A 
HETATM   45  H1  UNL     1       1.280   5.160   1.678  1.00  0.00     0.172 HD
HETATM   46  H3  UNL     1      -0.135   4.475  -1.113  1.00  0.00     0.169 HD
ENDROOT
TORSDOF 0
