REMARK  6 active torsions:
REMARK  status: ('A' for Active; 'I' for Inactive)
REMARK       I    between atoms: C1_2  and  N1_3 
REMARK    1  A    between atoms: C1_2  and  C22_27 
REMARK       I    between atoms: N1_3  and  C2_4 
REMARK    2  A    between atoms: C2_4  and  C3_6 
REMARK    3  A    between atoms: C25_30  and  C45_51 
REMARK    4  A    between atoms: C26_31  and  C28_33 
REMARK    5  A    between atoms: C33_38  and  C34_39 
REMARK    6  A    between atoms: C39_44  and  C40_45 
ROOT
HETATM    1  O1  UNL     1      -0.737   0.295   2.366  1.00  0.00    -0.267 OA
HETATM    2  C1  UNL     1      -0.750   0.144   1.113  1.00  0.00     0.258 C 
HETATM    3  N1  UNL     1       0.486   0.062   0.379  1.00  0.00    -0.288 N 
HETATM    4  C2  UNL     1       1.786   0.186   0.983  1.00  0.00     0.275 C 
HETATM    5  O2  UNL     1       1.894   0.413   2.219  1.00  0.00    -0.266 OA
HETATM    6  H1  UNL     1       0.436  -0.209  -0.629  1.00  0.00     0.172 HD
ENDROOT
BRANCH   2   7
HETATM    7  C22 UNL     1      -2.050   0.012   0.416  1.00  0.00     0.033 A 
HETATM    8  C23 UNL     1      -2.208   0.456  -0.906  1.00  0.00     0.018 A 
HETATM    9  C24 UNL     1      -3.431   0.299  -1.562  1.00  0.00     0.014 A 
HETATM   10  C25 UNL     1      -4.519  -0.299  -0.912  1.00  0.00    -0.011 A 
HETATM   11  C26 UNL     1      -4.377  -0.734   0.422  1.00  0.00    -0.013 A 
HETATM   12  C27 UNL     1      -3.145  -0.569   1.077  1.00  0.00     0.030 A 
BRANCH  10  13
HETATM   13  C45 UNL     1      -5.780  -0.505  -1.662  1.00  0.00     0.025 A 
HETATM   14  C40 UNL     1      -6.963   0.188  -1.314  1.00  0.00    -0.011 A 
HETATM   15  C41 UNL     1      -8.124  -0.001  -2.080  1.00  0.00     0.013 A 
HETATM   16  C42 UNL     1      -8.119  -0.869  -3.174  1.00  0.00     0.004 A 
HETATM   17  C43 UNL     1      -6.954  -1.557  -3.516  1.00  0.00     0.043 A 
HETATM   18  C44 UNL     1      -5.788  -1.377  -2.768  1.00  0.00     0.128 A 
HETATM   19  F1  UNL     1      -4.665  -2.056  -3.121  1.00  0.00    -0.205 F 
BRANCH  14  20
HETATM   20  C39 UNL     1      -6.998   1.144  -0.182  1.00  0.00    -0.014 A 
HETATM   21  C34 UNL     1      -6.857   0.709   1.157  1.00  0.00    -0.014 A 
HETATM   22  C35 UNL     1      -6.948   1.644   2.202  1.00  0.00     0.013 A 
HETATM   23  C36 UNL     1      -7.167   2.996   1.924  1.00  0.00     0.001 A 
HETATM   24  C37 UNL     1      -7.307   3.425   0.603  1.00  0.00     0.001 A 
HETATM   25  C38 UNL     1      -7.228   2.505  -0.445  1.00  0.00     0.013 A 
BRANCH  21  26
HETATM   26  C33 UNL     1      -6.666  -0.721   1.490  1.00  0.00    -0.014 A 
HETATM   27  C28 UNL     1      -5.484  -1.411   1.137  1.00  0.00    -0.014 A 
HETATM   28  C29 UNL     1      -5.328  -2.754   1.517  1.00  0.00     0.013 A 
HETATM   29  C30 UNL     1      -6.331  -3.408   2.236  1.00  0.00     0.001 A 
HETATM   30  C31 UNL     1      -7.497  -2.727   2.588  1.00  0.00     0.001 A 
HETATM   31  C32 UNL     1      -7.664  -1.390   2.220  1.00  0.00     0.013 A 
ENDBRANCH  21  26
ENDBRANCH  14  20
ENDBRANCH  10  13
ENDBRANCH   2   7
BRANCH   4  32
HETATM   32  C3  UNL     1       3.013   0.010   0.172  1.00  0.00     0.104 A 
HETATM   33  C4  UNL     1       4.161  -0.545   0.754  1.00  0.00     0.048 A 
HETATM   34  C5  UNL     1       5.307  -0.748  -0.022  1.00  0.00    -0.011 A 
HETATM   35  C6  UNL     1       5.295  -0.402  -1.389  1.00  0.00     0.021 A 
HETATM   36  C21 UNL     1       6.530  -1.290   0.610  1.00  0.00    -0.014 A 
HETATM   37  C7  UNL     1       4.139   0.196  -1.923  1.00  0.00     0.253 A 
HETATM   38  C8  UNL     1       6.503  -0.691  -2.261  1.00  0.00     0.050 C 
HETATM   39  O3  UNL     1       4.109   0.559  -3.130  1.00  0.00    -0.268 OA
HETATM   40  N2  UNL     1       3.039   0.384  -1.141  1.00  0.00    -0.319 N 
HETATM   41  H3  UNL     1       2.203   0.840  -1.568  1.00  0.00     0.169 HD
HETATM   42  C9  UNL     1       7.620   0.376  -2.199  1.00  0.00     0.044 C 
HETATM   43  C10 UNL     1       7.559   1.346  -1.031  1.00  0.00    -0.047 A 
HETATM   44  C11 UNL     1       7.455   2.724  -1.301  1.00  0.00     0.008 A 
HETATM   45  C15 UNL     1       7.695   0.921   0.316  1.00  0.00    -0.019 A 
HETATM   46  C12 UNL     1       7.507   3.661  -0.266  1.00  0.00     0.001 A 
HETATM   47  C13 UNL     1       7.658   3.239   1.054  1.00  0.00     0.001 A 
HETATM   48  C14 UNL     1       7.747   1.879   1.344  1.00  0.00     0.013 A 
HETATM   49  C16 UNL     1       7.706  -0.510   0.698  1.00  0.00    -0.014 A 
HETATM   50  C17 UNL     1       8.859  -1.060   1.281  1.00  0.00     0.013 A 
HETATM   51  C18 UNL     1       8.852  -2.376   1.751  1.00  0.00     0.001 A 
HETATM   52  C19 UNL     1       7.689  -3.144   1.664  1.00  0.00     0.001 A 
HETATM   53  C20 UNL     1       6.531  -2.604   1.101  1.00  0.00     0.013 A 
ENDBRANCH   4  32
TORSDOF 6
