REMARK  5 active torsions:
REMARK  status: ('A' for Active; 'I' for Inactive)
REMARK    1  A    between atoms: C6_6  and  N1_7 
REMARK    2  A    between atoms: C9_10  and  C10_11 
REMARK    3  A    between atoms: C10_11  and  N2_12 
REMARK    4  A    between atoms: N2_12  and  C11_13 
REMARK    5  A    between atoms: C16_19  and  C17_20 
ROOT
HETATM    1  N2  UNL     1      -1.007   0.457  -0.941  1.00  0.00     0.094 N 
HETATM    2  H11 UNL     1      -1.355  -0.111  -1.750  1.00  0.00     0.316 HD
ENDROOT
BRANCH   1   3
HETATM    3  C10 UNL     1       0.282   1.011  -1.388  1.00  0.00     0.331 C 
BRANCH   3   4
HETATM    4  C9  UNL     1       1.342  -0.038  -1.284  1.00  0.00     0.084 A 
HETATM    5  C8  UNL     1       1.382  -1.226  -1.991  1.00  0.00     0.050 A 
HETATM    6  C7  UNL     1       2.528  -1.849  -1.545  1.00  0.00     0.121 A 
HETATM    7  N1  UNL     1       3.124  -1.056  -0.624  1.00  0.00    -0.245 N 
HETATM    8  N3  UNL     1       2.407   0.047  -0.464  1.00  0.00    -0.171 NA
BRANCH   7   9
HETATM    9  C6  UNL     1       4.354  -1.315   0.082  1.00  0.00     0.058 A 
HETATM   10  C5  UNL     1       4.891  -2.616   0.161  1.00  0.00     0.031 A 
HETATM   11  C4  UNL     1       6.088  -2.849   0.842  1.00  0.00     0.003 A 
HETATM   12  C3  UNL     1       6.760  -1.792   1.458  1.00  0.00     0.007 A 
HETATM   13  C2  UNL     1       6.230  -0.493   1.414  1.00  0.00    -0.060 A 
HETATM   14  C1  UNL     1       6.974   0.650   2.045  1.00  0.00     0.048 C 
HETATM   15  C23 UNL     1       5.035  -0.258   0.714  1.00  0.00     0.038 A 
ENDBRANCH   7   9
ENDBRANCH   3   4
ENDBRANCH   1   3
BRANCH   1  16
HETATM   16  C11 UNL     1      -1.997   1.514  -0.627  1.00  0.00     0.231 C 
HETATM   17  C12 UNL     1      -1.765   2.052   0.815  1.00  0.00     0.062 C 
HETATM   18  C13 UNL     1      -2.531   3.360   1.130  1.00  0.00     0.169 C 
HETATM   19  O1  UNL     1      -3.223   3.849  -0.004  1.00  0.00    -0.391 OA
HETATM   20  C14 UNL     1      -4.518   3.282  -0.111  1.00  0.00     0.168 C 
HETATM   21  C15 UNL     1      -4.555   1.742  -0.018  1.00  0.00     0.037 C 
HETATM   22  C16 UNL     1      -3.480   1.029  -0.874  1.00  0.00     0.054 C 
BRANCH  22  23
HETATM   23  C17 UNL     1      -3.668  -0.482  -0.751  1.00  0.00    -0.052 A 
HETATM   24  C18 UNL     1      -3.484  -1.150   0.476  1.00  0.00     0.007 A 
HETATM   25  C19 UNL     1      -3.657  -2.535   0.563  1.00  0.00     0.001 A 
HETATM   26  C20 UNL     1      -4.020  -3.269  -0.567  1.00  0.00     0.000 A 
HETATM   27  C21 UNL     1      -4.210  -2.620  -1.788  1.00  0.00     0.001 A 
HETATM   28  C22 UNL     1      -4.035  -1.236  -1.883  1.00  0.00     0.007 A 
ENDBRANCH  22  23
ENDBRANCH   1  16
TORSDOF 5
