REMARK  3 active torsions:
REMARK  status: ('A' for Active; 'I' for Inactive)
REMARK    1  A    between atoms: C4_5  and  N2_6 
REMARK    2  A    between atoms: C6_8  and  C7_9 
REMARK       I    between atoms: C7_9  and  N3_11 
REMARK       I    between atoms: N4_16  and  C12_17 
REMARK    3  A    between atoms: C12_17  and  C13_19 
ROOT
HETATM    1  C7  UNL     1       2.246  -0.863  -0.443  1.00  0.00     0.260 C 
HETATM    2  O1  UNL     1       2.376  -1.931  -1.100  1.00  0.00    -0.267 OA
HETATM    3  N3  UNL     1       0.940  -0.267  -0.308  1.00  0.00    -0.311 N 
HETATM    4  C8  UNL     1       0.519   0.252   1.004  1.00  0.00     0.134 C 
HETATM    5  C9  UNL     1      -0.053  -0.866   1.889  1.00  0.00     0.045 C 
HETATM    6  C10 UNL     1      -0.976  -1.807   1.098  1.00  0.00     0.091 C 
HETATM    7  C11 UNL     1      -1.732  -2.785   2.010  1.00  0.00     0.033 C 
HETATM    8  N4  UNL     1      -1.856  -1.026   0.200  1.00  0.00    -0.307 N 
HETATM    9  C12 UNL     1      -3.040  -0.329   0.680  1.00  0.00     0.258 C 
HETATM   10  O2  UNL     1      -3.565  -0.659   1.776  1.00  0.00    -0.267 OA
HETATM   11  C19 UNL     1      -1.371  -0.796  -1.142  1.00  0.00     0.065 A 
HETATM   12  C20 UNL     1      -2.241  -0.980  -2.231  1.00  0.00     0.032 A 
HETATM   13  C21 UNL     1      -1.805  -0.753  -3.536  1.00  0.00     0.002 A 
HETATM   14  C22 UNL     1      -0.491  -0.353  -3.774  1.00  0.00     0.002 A 
HETATM   15  C23 UNL     1       0.396  -0.190  -2.709  1.00  0.00     0.032 A 
HETATM   16  C24 UNL     1      -0.020  -0.416  -1.384  1.00  0.00     0.064 A 
ENDROOT
BRANCH   1  17
HETATM   17  C6  UNL     1       3.444  -0.223   0.147  1.00  0.00     0.059 A 
HETATM   18  C2  UNL     1       4.440  -0.961   0.828  1.00  0.00     0.046 A 
HETATM   19  C1  UNL     1       4.332  -2.443   1.037  1.00  0.00     0.071 C 
HETATM   20  N1  UNL     1       5.533  -0.316   1.323  1.00  0.00    -0.263 NA
HETATM   21  C3  UNL     1       5.704   1.025   1.196  1.00  0.00     0.145 A 
HETATM   22  C4  UNL     1       4.740   1.797   0.541  1.00  0.00     0.044 A 
HETATM   23  C5  UNL     1       3.610   1.165   0.015  1.00  0.00     0.049 A 
BRANCH  22  24
HETATM   24  N2  UNL     1       4.911   3.210   0.406  1.00  0.00    -0.398 N 
HETATM   25  H5  UNL     1       5.754   3.686   0.796  1.00  0.00     0.156 HD
HETATM   26  H6  UNL     1       4.194   3.790  -0.084  1.00  0.00     0.156 HD
ENDBRANCH  22  24
ENDBRANCH   1  17
BRANCH   9  27
HETATM   27  C13 UNL     1      -3.690   0.764  -0.085  1.00  0.00     0.032 A 
HETATM   28  C14 UNL     1      -5.091   0.787  -0.202  1.00  0.00     0.018 A 
HETATM   29  C15 UNL     1      -5.726   1.809  -0.914  1.00  0.00     0.025 A 
HETATM   30  C16 UNL     1      -4.970   2.825  -1.507  1.00  0.00     0.034 A 
HETATM   31 CL1  UNL     1      -5.767   4.104  -2.403  1.00  0.00    -0.084 Cl
HETATM   32  C17 UNL     1      -3.578   2.821  -1.380  1.00  0.00     0.025 A 
HETATM   33  C18 UNL     1      -2.940   1.802  -0.667  1.00  0.00     0.018 A 
ENDBRANCH   9  27
TORSDOF 3
