REMARK  3 active torsions:
REMARK  status: ('A' for Active; 'I' for Inactive)
REMARK    1  A    between atoms: C9_10  and  C10_11 
REMARK    2  A    between atoms: C10_11  and  N2_12 
REMARK       I    between atoms: N2_12  and  C12_14 
REMARK    3  A    between atoms: C12_14  and  C13_16 
ROOT
HETATM    1  N2  UNL     1      -1.601  -2.517   0.500  1.00  0.00    -0.348 N 
HETATM    2  C11 UNL     1      -0.969  -3.325   1.547  1.00  0.00     0.153 C 
HETATM    3  C12 UNL     1      -0.840  -2.169  -0.667  1.00  0.00     0.253 C 
HETATM    4  O1  UNL     1      -1.247  -2.543  -1.800  1.00  0.00    -0.267 OA
ENDROOT
BRANCH   3   5
HETATM    5  C13 UNL     1       0.410  -1.381  -0.559  1.00  0.00     0.034 A 
HETATM    6  C14 UNL     1       0.623  -0.526   0.531  1.00  0.00     0.018 A 
HETATM    7  C15 UNL     1       1.807   0.205   0.636  1.00  0.00     0.010 A 
HETATM    8  C16 UNL     1       2.801   0.105  -0.351  1.00  0.00    -0.031 A 
HETATM    9  C17 UNL     1       2.567  -0.707  -1.483  1.00  0.00     0.043 A 
HETATM   10  C22 UNL     1       4.091   0.866  -0.164  1.00  0.00     0.042 C 
HETATM   11  C18 UNL     1       1.385  -1.456  -1.566  1.00  0.00     0.047 A 
HETATM   12  N3  UNL     1       3.530  -0.822  -2.539  1.00  0.00    -0.308 N 
HETATM   13  C19 UNL     1       3.891   0.286  -3.372  1.00  0.00     0.320 C 
HETATM   14  H17 UNL     1       3.753  -1.781  -2.891  1.00  0.00     0.170 HD
HETATM   15  O2  UNL     1       4.521   0.079  -4.443  1.00  0.00    -0.247 OA
HETATM   16  N4  UNL     1       3.518   1.623  -3.026  1.00  0.00    -0.343 N 
HETATM   17  C20 UNL     1       4.383   2.425  -2.167  1.00  0.00     0.125 C 
HETATM   18  H18 UNL     1       2.893   2.131  -3.691  1.00  0.00     0.164 HD
HETATM   19  C21 UNL     1       3.980   2.303  -0.696  1.00  0.00     0.024 C 
ENDBRANCH   3   5
BRANCH   1  20
HETATM   20  C10 UNL     1      -3.032  -2.191   0.555  1.00  0.00     0.167 C 
BRANCH  20  21
HETATM   21  C9  UNL     1      -3.219  -0.706   0.685  1.00  0.00    -0.006 A 
HETATM   22  C2  UNL     1      -3.613   0.197  -0.306  1.00  0.00     0.014 A 
HETATM   23  C1  UNL     1      -3.991  -0.153  -1.709  1.00  0.00     0.068 C 
HETATM   24  N1  UNL     1      -3.595   1.465   0.168  1.00  0.00    -0.359 N 
HETATM   25  C3  UNL     1      -3.185   1.375   1.445  1.00  0.00     0.043 A 
HETATM   26  H4  UNL     1      -3.836   2.336  -0.354  1.00  0.00     0.166 HD
HETATM   27  C4  UNL     1      -2.988   2.423   2.343  1.00  0.00     0.030 A 
HETATM   28  C8  UNL     1      -2.947   0.069   1.797  1.00  0.00     0.000 A 
HETATM   29  C5  UNL     1      -2.531   2.105   3.635  1.00  0.00     0.002 A 
HETATM   30  C6  UNL     1      -2.283   0.762   3.996  1.00  0.00     0.001 A 
HETATM   31  C7  UNL     1      -2.492  -0.275   3.069  1.00  0.00     0.014 A 
ENDBRANCH  20  21
ENDBRANCH   1  20
TORSDOF 3
