REMARK  2 active torsions:
REMARK  status: ('A' for Active; 'I' for Inactive)
REMARK       I    between atoms: N2_8  and  C6_9 
REMARK       I    between atoms: C6_9  and  N3_11 
REMARK    1  A    between atoms: N3_11  and  C7_12 
REMARK    2  A    between atoms: C12_19  and  C13_20 
ROOT
HETATM    1  C1  UNL     1      -1.607  -3.987   0.722  1.00  0.00     0.034 C 
HETATM    2  C2  UNL     1      -1.636  -2.570   0.124  1.00  0.00     0.108 C 
HETATM    3  N1  UNL     1      -1.259  -2.585  -1.293  1.00  0.00    -0.354 N 
HETATM    4  C3  UNL     1       0.072  -2.743  -1.817  1.00  0.00     0.219 C 
HETATM    5  O1  UNL     1       0.264  -2.519  -3.042  1.00  0.00    -0.274 OA
HETATM    6  C4  UNL     1       1.240  -3.234  -0.995  1.00  0.00     0.122 C 
HETATM    7  C5  UNL     1       1.353  -2.657   0.426  1.00  0.00     0.137 C 
HETATM    8  N2  UNL     1       0.587  -1.419   0.588  1.00  0.00    -0.323 N 
HETATM    9  C6  UNL     1       1.330  -0.197   0.769  1.00  0.00     0.323 C 
HETATM   10  O2  UNL     1       1.124   0.515   1.789  1.00  0.00    -0.247 OA
HETATM   11  N3  UNL     1       2.304   0.202  -0.207  1.00  0.00    -0.306 N 
HETATM   12  C12 UNL     1      -0.854  -1.485   0.933  1.00  0.00     0.144 C 
HETATM   13  H5  UNL     1      -2.013  -2.361  -1.982  1.00  0.00     0.162 HD
HETATM   14  H10 UNL     1       2.678  -0.524  -0.857  1.00  0.00     0.171 HD
ENDROOT
BRANCH  12  15
HETATM   15  C13 UNL     1      -1.533  -0.136   0.720  1.00  0.00    -0.030 A 
HETATM   16  C14 UNL     1      -2.292   0.451   1.768  1.00  0.00     0.010 A 
HETATM   17  C15 UNL     1      -2.913   1.701   1.594  1.00  0.00     0.015 A 
HETATM   18  C16 UNL     1      -2.763   2.334   0.364  1.00  0.00    -0.001 A 
HETATM   19  C17 UNL     1      -3.235   3.542  -0.092  1.00  0.00     0.039 A 
HETATM   20  C19 UNL     1      -2.047   1.774  -0.656  1.00  0.00     0.085 A 
HETATM   21  C18 UNL     1      -2.757   3.634  -1.395  1.00  0.00     0.143 A 
HETATM   22  O3  UNL     1      -2.050   2.561  -1.703  1.00  0.00    -0.322 OA
HETATM   23  C20 UNL     1      -1.424   0.538  -0.521  1.00  0.00     0.047 A 
ENDBRANCH  12  15
BRANCH  11  24
HETATM   24  C7  UNL     1       2.778   1.551  -0.352  1.00  0.00     0.077 A 
HETATM   25  C8  UNL     1       1.942   2.651  -0.092  1.00  0.00     0.052 A 
HETATM   26  C9  UNL     1       2.429   3.947  -0.276  1.00  0.00     0.118 A 
HETATM   27  N4  UNL     1       3.699   4.142  -0.717  1.00  0.00    -0.270 NA
HETATM   28  C10 UNL     1       4.525   3.099  -0.994  1.00  0.00     0.160 A 
HETATM   29  C11 UNL     1       4.078   1.786  -0.825  1.00  0.00     0.160 A 
HETATM   30  F1  UNL     1       4.910   0.751  -1.105  1.00  0.00    -0.202 F 
ENDBRANCH  11  24
TORSDOF 2
