REMARK  1 active torsions:
REMARK  status: ('A' for Active; 'I' for Inactive)
REMARK    1  A    between atoms: C1_2  and  C2_3 
REMARK       I    between atoms: C1_2  and  N1_11 
ROOT
HETATM    1  O1  UNL     1       1.211   0.627   2.602  1.00  0.00    -0.263 OA
HETATM    2  C1  UNL     1       1.205   0.507   1.347  1.00  0.00     0.300 C 
HETATM    3  N1  UNL     1       0.031   0.865   0.598  1.00  0.00    -0.098 N 
HETATM    4  O2  UNL     1      -0.095   0.442  -0.679  1.00  0.00    -0.158 OA
HETATM    5  N2  UNL     1      -0.986  -0.572  -0.610  1.00  0.00    -0.172 NA
HETATM    6  C8  UNL     1      -2.183  -0.082  -1.274  1.00  0.00     0.099 A 
HETATM    7  C9  UNL     1      -3.383  -0.993  -1.058  1.00  0.00     0.023 A 
HETATM    8  C10 UNL     1      -4.115   0.140  -0.353  1.00  0.00     0.017 A 
HETATM    9  C11 UNL     1      -2.898   1.058  -0.529  1.00  0.00     0.099 A 
HETATM   10  C12 UNL     1      -2.380   1.572   0.809  1.00  0.00     0.243 C 
HETATM   11  O3  UNL     1      -3.225   2.089   1.590  1.00  0.00    -0.271 OA
HETATM   12  N3  UNL     1      -0.994   1.619   1.201  1.00  0.00    -0.238 N 
HETATM   13  H4  UNL     1      -0.598  -1.352  -1.188  1.00  0.00     0.156 HD
HETATM   14  H11 UNL     1      -0.778   2.128   2.088  1.00  0.00     0.192 HD
ENDROOT
BRANCH   2  15
HETATM   15  C2  UNL     1       2.389  -0.060   0.674  1.00  0.00     0.053 A 
HETATM   16  C3  UNL     1       2.899  -1.291   1.121  1.00  0.00     0.022 A 
HETATM   17  C4  UNL     1       4.008  -1.866   0.495  1.00  0.00     0.043 A 
HETATM   18  C5  UNL     1       4.625  -1.215  -0.575  1.00  0.00     0.117 A 
HETATM   19  F1  UNL     1       5.702  -1.774  -1.179  1.00  0.00    -0.206 F 
HETATM   20  C6  UNL     1       4.140   0.020  -1.014  1.00  0.00     0.062 A 
HETATM   21  C7  UNL     1       3.029   0.606  -0.395  1.00  0.00     0.029 A 
HETATM   22 BR1  UNL     1       2.485   2.350  -0.985  1.00  0.00    -0.050 Br
ENDBRANCH   2  15
TORSDOF 1
