REMARK  4 active torsions:
REMARK  status: ('A' for Active; 'I' for Inactive)
REMARK    1  A    between atoms: C2_2  and  C3_3 
REMARK    2  A    between atoms: C6_7  and  C7_8 
REMARK       I    between atoms: C7_8  and  N1_10 
REMARK    3  A    between atoms: N1_10  and  C8_11 
REMARK    4  A    between atoms: N2_16  and  C13_17 
ROOT
HETATM    1  C8  UNL     1       0.084  -0.390  -0.254  1.00  0.00     0.102 C 
HETATM    2  C9  UNL     1       0.167  -1.842   0.277  1.00  0.00     0.027 C 
HETATM    3  C10 UNL     1      -1.116  -2.681   0.142  1.00  0.00     0.004 C 
HETATM    4  C11 UNL     1      -1.768  -2.613  -1.250  1.00  0.00     0.020 C 
HETATM    5  C12 UNL     1      -2.343  -1.230  -1.627  1.00  0.00     0.124 C 
HETATM    6  N2  UNL     1      -2.444  -0.326  -0.467  1.00  0.00    -0.364 N 
HETATM    7  C18 UNL     1      -1.247   0.311   0.116  1.00  0.00     0.149 C 
ENDROOT
BRANCH   1   8
HETATM    8  N1  UNL     1       1.213   0.384   0.278  1.00  0.00    -0.351 N 
HETATM    9  C7  UNL     1       2.559   0.200  -0.194  1.00  0.00     0.254 C 
HETATM   10  O2  UNL     1       2.777  -0.567  -1.170  1.00  0.00    -0.268 OA
HETATM   11  H8  UNL     1       1.026   1.118   0.997  1.00  0.00     0.163 HD
BRANCH   9  12
HETATM   12  C6  UNL     1       3.692   0.903   0.450  1.00  0.00     0.063 A 
HETATM   13  C3  UNL     1       5.016   0.948   0.029  1.00  0.00     0.068 A 
HETATM   14  O1  UNL     1       5.723   1.657   0.880  1.00  0.00    -0.326 OA
HETATM   15  C4  UNL     1       4.935   2.083   1.840  1.00  0.00     0.143 A 
HETATM   16  C5  UNL     1       3.648   1.639   1.620  1.00  0.00     0.044 A 
BRANCH  13  17
HETATM   17  C2  UNL     1       5.588   0.293  -1.199  1.00  0.00     0.061 C 
HETATM   18  C1  UNL     1       7.058   0.648  -1.408  1.00  0.00     0.012 C 
ENDBRANCH  13  17
ENDBRANCH   9  12
ENDBRANCH   1   8
BRANCH   6  19
HETATM   19  C13 UNL     1      -3.727  -0.029   0.123  1.00  0.00     0.130 A 
HETATM   20  C14 UNL     1      -4.752  -0.987   0.166  1.00  0.00     0.094 A 
HETATM   21  C15 UNL     1      -5.966  -0.643   0.759  1.00  0.00     0.131 A 
HETATM   22 CL1  UNL     1      -7.278  -1.803   0.826  1.00  0.00    -0.062 Cl
HETATM   23  N3  UNL     1      -6.134   0.594   1.292  1.00  0.00    -0.222 NA
HETATM   24  C16 UNL     1      -5.128   1.507   1.270  1.00  0.00     0.126 A 
HETATM   25  C17 UNL     1      -5.344   2.871   1.833  1.00  0.00     0.093 C 
HETATM   26  N4  UNL     1      -3.943   1.194   0.682  1.00  0.00    -0.216 NA
ENDBRANCH   6  19
TORSDOF 4
