REMARK  8 active torsions:
REMARK  status: ('A' for Active; 'I' for Inactive)
REMARK    1  A    between atoms: C1_2  and  C2_3 
REMARK       I    between atoms: C1_2  and  N1_27 
REMARK    2  A    between atoms: C4_5  and  C25_26 
REMARK    3  A    between atoms: C5_6  and  C8_9 
REMARK    4  A    between atoms: C13_14  and  C14_15 
REMARK    5  A    between atoms: C19_20  and  C20_21 
REMARK    6  A    between atoms: C26_28  and  C43_46 
REMARK    7  A    between atoms: C31_34  and  C32_35 
REMARK    8  A    between atoms: C37_40  and  C38_41 
ROOT
HETATM    1  C2  UNL     1      -0.273  -1.087  -1.716  1.00  0.00     0.033 A 
HETATM    2  C3  UNL     1      -0.001  -1.157  -0.342  1.00  0.00     0.030 A 
HETATM    3  C4  UNL     1       1.259  -1.555   0.124  1.00  0.00    -0.013 A 
HETATM    4  C5  UNL     1       2.236  -1.990  -0.799  1.00  0.00    -0.014 A 
HETATM    5  C6  UNL     1       1.938  -1.994  -2.169  1.00  0.00     0.014 A 
HETATM    6  C7  UNL     1       0.699  -1.541  -2.624  1.00  0.00     0.018 A 
ENDROOT
BRANCH   1   7
HETATM    7  C1  UNL     1      -1.559  -0.553  -2.223  1.00  0.00     0.263 C 
HETATM    8  O1  UNL     1      -2.081  -1.104  -3.230  1.00  0.00    -0.267 OA
HETATM    9  N1  UNL     1      -2.203   0.612  -1.661  1.00  0.00    -0.277 N 
HETATM   10  C26 UNL     1      -3.210   1.305  -2.345  1.00  0.00     0.054 C 
HETATM   11  C31 UNL     1      -1.760   1.350  -0.542  1.00  0.00     0.057 C 
HETATM   12  C27 UNL     1      -2.851   2.361  -3.101  1.00  0.00     0.034 C 
HETATM   13  C28 UNL     1      -1.451   2.865  -3.150  1.00  0.00     0.044 C 
HETATM   14  C29 UNL     1      -0.614   2.902  -2.091  1.00  0.00     0.118 C 
HETATM   15  F1  UNL     1       0.553   3.585  -2.227  1.00  0.00    -0.206 F 
HETATM   16  C30 UNL     1      -0.973   2.419  -0.732  1.00  0.00     0.073 C 
BRANCH  10  17
HETATM   17  C43 UNL     1      -4.587   1.157  -1.842  1.00  0.00     0.002 A 
HETATM   18  C38 UNL     1      -4.889   0.960  -0.442  1.00  0.00    -0.013 A 
HETATM   19  C39 UNL     1      -6.266   1.034  -0.088  1.00  0.00     0.013 A 
HETATM   20  C40 UNL     1      -7.274   1.170  -1.040  1.00  0.00     0.001 A 
HETATM   21  C41 UNL     1      -6.959   1.262  -2.388  1.00  0.00     0.001 A 
HETATM   22  C42 UNL     1      -5.628   1.264  -2.786  1.00  0.00     0.014 A 
BRANCH  18  23
HETATM   23  C37 UNL     1      -3.877   0.723   0.703  1.00  0.00    -0.013 C 
HETATM   24  C32 UNL     1      -2.496   1.127   0.707  1.00  0.00     0.002 C 
HETATM   25  C33 UNL     1      -1.747   1.101   1.902  1.00  0.00     0.014 C 
HETATM   26  C34 UNL     1      -2.288   0.572   3.067  1.00  0.00     0.001 C 
HETATM   27  C35 UNL     1      -3.568   0.033   3.051  1.00  0.00     0.001 C 
HETATM   28  C36 UNL     1      -4.345   0.099   1.894  1.00  0.00     0.013 C 
ENDBRANCH  18  23
ENDBRANCH  10  17
ENDBRANCH   1   7
BRANCH   3  29
HETATM   29  C25 UNL     1       1.555  -1.427   1.567  1.00  0.00    -0.014 A 
HETATM   30  C20 UNL     1       2.476  -0.456   2.037  1.00  0.00    -0.014 A 
HETATM   31  C21 UNL     1       2.671  -0.298   3.419  1.00  0.00     0.013 A 
HETATM   32  C22 UNL     1       1.956  -1.087   4.325  1.00  0.00     0.001 A 
HETATM   33  C23 UNL     1       1.046  -2.041   3.862  1.00  0.00     0.001 A 
HETATM   34  C24 UNL     1       0.841  -2.208   2.491  1.00  0.00     0.013 A 
BRANCH  30  35
HETATM   35  C19 UNL     1       3.181   0.452   1.102  1.00  0.00    -0.014 A 
HETATM   36  C14 UNL     1       4.171  -0.024   0.211  1.00  0.00    -0.014 A 
HETATM   37  C15 UNL     1       4.808   0.879  -0.656  1.00  0.00     0.013 A 
HETATM   38  C16 UNL     1       4.440   2.227  -0.671  1.00  0.00     0.001 A 
HETATM   39  C17 UNL     1       3.447   2.689   0.191  1.00  0.00     0.001 A 
HETATM   40  C18 UNL     1       2.828   1.808   1.083  1.00  0.00     0.013 A 
BRANCH  36  41
HETATM   41  C13 UNL     1       4.515  -1.467   0.135  1.00  0.00    -0.014 A 
HETATM   42  C8  UNL     1       3.580  -2.413  -0.350  1.00  0.00    -0.014 A 
HETATM   43  C9  UNL     1       3.951  -3.764  -0.449  1.00  0.00     0.013 A 
HETATM   44  C10 UNL     1       5.234  -4.170  -0.073  1.00  0.00     0.001 A 
HETATM   45  C11 UNL     1       6.160  -3.238   0.396  1.00  0.00     0.001 A 
HETATM   46  C12 UNL     1       5.802  -1.892   0.504  1.00  0.00     0.013 A 
ENDBRANCH  36  41
ENDBRANCH  30  35
ENDBRANCH   3  29
TORSDOF 8
