REMARK  5 active torsions:
REMARK  status: ('A' for Active; 'I' for Inactive)
REMARK    1  A    between atoms: C2_2  and  N1_4 
REMARK    2  A    between atoms: N1_4  and  C4_5 
REMARK    3  A    between atoms: C9_11  and  C10_12 
REMARK       I    between atoms: C10_12  and  N2_14 
REMARK    4  A    between atoms: C14_18  and  C15_19 
REMARK    5  A    between atoms: C15_19  and  O3_21 
ROOT
HETATM    1  C10 UNL     1      -0.527   0.428  -1.399  1.00  0.00     0.256 C 
HETATM    2  O1  UNL     1      -0.631   1.386  -2.211  1.00  0.00    -0.267 OA
HETATM    3  N2  UNL     1       0.319   0.560  -0.235  1.00  0.00    -0.348 N 
HETATM    4  C11 UNL     1       0.537   1.909   0.327  1.00  0.00     0.130 C 
HETATM    5  C12 UNL     1       1.799   2.568  -0.247  1.00  0.00     0.055 C 
HETATM    6  C13 UNL     1       2.952   1.649  -0.068  1.00  0.00    -0.064 C 
HETATM    7  C14 UNL     1       3.503   1.001   1.032  1.00  0.00     0.022 C 
HETATM    8  C16 UNL     1       4.087  -0.030   0.127  1.00  0.00     0.030 C 
HETATM    9  C17 UNL     1       3.313  -1.381   0.211  1.00  0.00     0.011 C 
HETATM   10  C18 UNL     1       1.847  -1.438  -0.310  1.00  0.00     0.021 C 
HETATM   11  C19 UNL     1       0.799  -0.634   0.498  1.00  0.00     0.126 C 
HETATM   12  C20 UNL     1       3.778   0.818  -0.992  1.00  0.00     0.044 C 
ENDROOT
BRANCH   1  13
HETATM   13  C9  UNL     1      -1.328  -0.788  -1.645  1.00  0.00     0.060 A 
HETATM   14  C4  UNL     1      -2.658  -0.901  -1.174  1.00  0.00     0.066 A 
HETATM   15  C5  UNL     1      -3.417  -2.039  -1.511  1.00  0.00     0.061 A 
HETATM   16 CL1  UNL     1      -5.079  -2.221  -0.967  1.00  0.00    -0.082 Cl
HETATM   17  C6  UNL     1      -2.853  -3.055  -2.290  1.00  0.00     0.026 A 
HETATM   18  C7  UNL     1      -1.549  -2.933  -2.767  1.00  0.00     0.003 A 
HETATM   19  C8  UNL     1      -0.797  -1.798  -2.465  1.00  0.00     0.019 A 
BRANCH  14  20
HETATM   20  N1  UNL     1      -3.273   0.168  -0.436  1.00  0.00    -0.384 N 
HETATM   21  H8  UNL     1      -4.202   0.506  -0.778  1.00  0.00     0.160 HD
BRANCH  20  22
HETATM   22  C2  UNL     1      -2.943   0.422   0.967  1.00  0.00     0.073 C 
HETATM   23  C1  UNL     1      -3.744  -0.515   1.873  1.00  0.00     0.031 C 
HETATM   24  C3  UNL     1      -3.229   1.883   1.311  1.00  0.00     0.031 C 
ENDBRANCH  20  22
ENDBRANCH  14  20
ENDBRANCH   1  13
BRANCH   7  25
HETATM   25  C15 UNL     1       3.373   1.132   2.485  1.00  0.00     0.172 C 
HETATM   26  O2  UNL     1       3.884   0.265   3.241  1.00  0.00    -0.646 OA
BRANCH  25  27
HETATM   27  O3  UNL     1       2.693   2.217   3.028  1.00  0.00    -0.773 OA
HETATM   28  H16 UNL     1       2.587   2.316   4.030  1.00  0.00     0.167 HD
ENDBRANCH  25  27
ENDBRANCH   7  25
TORSDOF 5
