REMARK  2 active torsions:
REMARK  status: ('A' for Active; 'I' for Inactive)
REMARK    1  A    between atoms: C4_4  and  C5_5 
REMARK    2  A    between atoms: C20_21  and  S1_22 
ROOT
HETATM    1  C5  UNL     1       0.514   0.090   0.344  1.00  0.00    -0.023 A 
HETATM    2  C6  UNL     1      -0.084  -0.987   1.005  1.00  0.00     0.013 A 
HETATM    3  C7  UNL     1      -1.455  -1.208   0.901  1.00  0.00     0.016 A 
HETATM    4  C8  UNL     1      -2.282  -0.367   0.125  1.00  0.00     0.008 A 
HETATM    5  C9  UNL     1      -1.681   0.765  -0.507  1.00  0.00     0.080 A 
HETATM    6  C10 UNL     1      -0.295   0.956  -0.404  1.00  0.00     0.050 A 
HETATM    7  O1  UNL     1      -2.367   1.754  -1.235  1.00  0.00    -0.350 OA
HETATM    8  C11 UNL     1      -3.771   1.956  -1.331  1.00  0.00     0.180 C 
HETATM    9  C12 UNL     1      -4.466   1.686  -0.001  1.00  0.00     0.066 C 
HETATM   10  C13 UNL     1      -4.770   0.222   0.072  1.00  0.00    -0.045 A 
HETATM   11  C14 UNL     1      -6.113  -0.197   0.057  1.00  0.00     0.008 A 
HETATM   12  C15 UNL     1      -6.433  -1.551  -0.026  1.00  0.00     0.001 A 
HETATM   13  C16 UNL     1      -5.419  -2.500  -0.120  1.00  0.00     0.001 A 
HETATM   14  C17 UNL     1      -4.083  -2.100  -0.106  1.00  0.00     0.013 A 
HETATM   15  C18 UNL     1      -3.731  -0.736   0.012  1.00  0.00    -0.017 A 
ENDROOT
BRANCH   1  16
HETATM   16  C4  UNL     1       1.978   0.319   0.447  1.00  0.00    -0.024 A 
HETATM   17  C3  UNL     1       2.488   1.619   0.618  1.00  0.00     0.019 A 
HETATM   18  C2  UNL     1       3.870   1.836   0.719  1.00  0.00    -0.060 A 
HETATM   19  C1  UNL     1       4.406   3.231   0.860  1.00  0.00     0.048 C 
HETATM   20  C22 UNL     1       4.751   0.750   0.621  1.00  0.00     0.030 A 
HETATM   21  C20 UNL     1       4.256  -0.550   0.461  1.00  0.00     0.060 A 
HETATM   22  C19 UNL     1       2.874  -0.762   0.371  1.00  0.00     0.035 A 
BRANCH  21  23
HETATM   23  S1  UNL     1       5.366  -1.909   0.327  1.00  0.00     0.171 S 
HETATM   24  C21 UNL     1       5.758  -2.184  -1.386  1.00  0.00     0.167 C 
HETATM   25  O2  UNL     1       6.628  -1.615   1.090  1.00  0.00    -0.223 OA
HETATM   26  O3  UNL     1       4.731  -3.144   0.903  1.00  0.00    -0.223 OA
ENDBRANCH  21  23
ENDBRANCH   1  16
TORSDOF 2
