REMARK  3 active torsions:
REMARK  status: ('A' for Active; 'I' for Inactive)
REMARK    1  A    between atoms: C1_2  and  C2_3 
REMARK    2  A    between atoms: C1_2  and  C20_22 
REMARK    3  A    between atoms: C10_12  and  C11_13 
ROOT
HETATM    1  C2  UNL     1       0.680   0.367  -1.314  1.00  0.00     0.018 A 
HETATM    2  C3  UNL     1       0.617   0.922  -0.006  1.00  0.00     0.016 A 
HETATM    3  C4  UNL     1      -0.612   1.048   0.666  1.00  0.00     0.016 A 
HETATM    4  C5  UNL     1      -1.756   0.624   0.000  1.00  0.00     0.011 A 
HETATM    5  C6  UNL     1      -1.713   0.099  -1.273  1.00  0.00     0.088 A 
HETATM    6  C7  UNL     1      -0.511  -0.036  -1.961  1.00  0.00     0.053 A 
HETATM    7  O2  UNL     1      -2.919  -0.230  -1.694  1.00  0.00    -0.309 OA
HETATM    8  C8  UNL     1      -3.752   0.070  -0.716  1.00  0.00     0.088 A 
HETATM    9  C9  UNL     1      -5.132  -0.104  -0.698  1.00  0.00     0.050 A 
HETATM   10  C10 UNL     1      -5.845   0.284   0.464  1.00  0.00    -0.023 A 
HETATM   11  C17 UNL     1      -5.135   0.838   1.567  1.00  0.00     0.013 A 
HETATM   12  C18 UNL     1      -3.739   1.002   1.521  1.00  0.00     0.016 A 
HETATM   13  C19 UNL     1      -3.081   0.605   0.362  1.00  0.00     0.011 A 
ENDROOT
BRANCH   1  14
HETATM   14  C1  UNL     1       1.975   0.241  -2.024  1.00  0.00     0.192 C 
HETATM   15  O1  UNL     1       2.004   0.429  -3.273  1.00  0.00    -0.287 OA
BRANCH  14  16
HETATM   16  C20 UNL     1       3.236  -0.107  -1.321  1.00  0.00     0.017 A 
HETATM   17  C21 UNL     1       3.226  -0.907  -0.173  1.00  0.00     0.016 A 
HETATM   18  C22 UNL     1       4.417  -1.236   0.471  1.00  0.00     0.010 A 
HETATM   19  C23 UNL     1       5.657  -0.785  -0.016  1.00  0.00    -0.031 A 
HETATM   20  C24 UNL     1       5.687  -0.030  -1.225  1.00  0.00     0.042 A 
HETATM   21  C29 UNL     1       6.892  -1.194   0.758  1.00  0.00     0.041 C 
HETATM   22  C25 UNL     1       4.470   0.312  -1.844  1.00  0.00     0.045 A 
HETATM   23  N1  UNL     1       6.903   0.415  -1.865  1.00  0.00    -0.327 N 
HETATM   24  C26 UNL     1       8.182  -0.218  -1.733  1.00  0.00     0.222 C 
HETATM   25  H15 UNL     1       6.808   1.051  -2.688  1.00  0.00     0.169 HD
HETATM   26  O3  UNL     1       8.775  -0.625  -2.769  1.00  0.00    -0.273 OA
HETATM   27  C27 UNL     1       8.914  -0.256  -0.427  1.00  0.00     0.103 C 
HETATM   28  C28 UNL     1       7.985  -0.119   0.776  1.00  0.00     0.014 C 
ENDBRANCH  14  16
ENDBRANCH   1  14
BRANCH  10  29
HETATM   29  C11 UNL     1      -7.319   0.110   0.531  1.00  0.00    -0.026 A 
HETATM   30  C12 UNL     1      -7.934  -0.330   1.720  1.00  0.00     0.012 A 
HETATM   31  C13 UNL     1      -9.319  -0.500   1.778  1.00  0.00     0.001 A 
HETATM   32  C14 UNL     1     -10.104  -0.234   0.654  1.00  0.00     0.000 A 
HETATM   33  C15 UNL     1      -9.508   0.205  -0.528  1.00  0.00     0.001 A 
HETATM   34  C16 UNL     1      -8.122   0.376  -0.593  1.00  0.00     0.012 A 
ENDBRANCH  10  29
TORSDOF 3
