REMARK  1 active torsions:
REMARK  status: ('A' for Active; 'I' for Inactive)
REMARK    1  A    between atoms: C7_7  and  C8_8 
REMARK       I    between atoms: C8_8  and  N1_10 
ROOT
HETATM    1  C1  UNL     1       6.425  -0.969  -0.933  1.00  0.00     0.049 C 
HETATM    2  C2  UNL     1       5.083  -0.515  -0.424  1.00  0.00    -0.044 A 
HETATM    3  C3  UNL     1       5.010   0.619   0.399  1.00  0.00     0.009 A 
HETATM    4  C4  UNL     1       3.785   1.065   0.887  1.00  0.00     0.013 A 
HETATM    5  C5  UNL     1       2.604   0.386   0.564  1.00  0.00    -0.024 A 
HETATM    6  C6  UNL     1       1.375   0.844   1.064  1.00  0.00     0.029 A 
HETATM    7  C7  UNL     1       0.180   0.183   0.740  1.00  0.00     0.033 A 
HETATM    8  C14 UNL     1       0.230  -0.958  -0.074  1.00  0.00     0.018 A 
HETATM    9  C15 UNL     1       1.447  -1.424  -0.576  1.00  0.00     0.014 A 
HETATM   10  C16 UNL     1       2.652  -0.762  -0.268  1.00  0.00    -0.008 A 
HETATM   11  C17 UNL     1       3.901  -1.212  -0.766  1.00  0.00     0.028 A 
HETATM   12 BR1  UNL     1       4.019  -2.766  -1.909  1.00  0.00    -0.050 Br
ENDROOT
BRANCH   7  13
HETATM   13  C8  UNL     1      -1.110   0.662   1.291  1.00  0.00     0.253 C 
HETATM   14  O1  UNL     1      -1.121   1.284   2.388  1.00  0.00    -0.267 OA
HETATM   15  N1  UNL     1      -2.355   0.421   0.606  1.00  0.00    -0.346 N 
HETATM   16  C9  UNL     1      -2.449   0.682  -0.841  1.00  0.00     0.145 C 
HETATM   17  C13 UNL     1      -3.547   0.105   1.408  1.00  0.00     0.135 C 
HETATM   18  C10 UNL     1      -3.676   1.536  -1.175  1.00  0.00     0.142 C 
HETATM   19  N2  UNL     1      -4.879   0.717  -1.321  1.00  0.00    -0.359 N 
HETATM   20  C11 UNL     1      -5.385  -0.173  -0.314  1.00  0.00     0.219 C 
HETATM   21  H11 UNL     1      -5.474   0.881  -2.165  1.00  0.00     0.162 HD
HETATM   22  O2  UNL     1      -6.610  -0.468  -0.326  1.00  0.00    -0.274 OA
HETATM   23  C12 UNL     1      -4.488  -0.861   0.680  1.00  0.00     0.122 C 
ENDBRANCH   7  13
TORSDOF 1
