REMARK  2 active torsions:
REMARK  status: ('A' for Active; 'I' for Inactive)
REMARK    1  A    between atoms: C6_6  and  C7_7 
REMARK    2  A    between atoms: C11_11  and  C12_12 
REMARK       I    between atoms: C12_12  and  N1_14 
ROOT
HETATM    1  C12 UNL     1      -0.342  -0.762  -0.750  1.00  0.00     0.268 C 
HETATM    2  O1  UNL     1      -0.190  -1.918  -1.229  1.00  0.00    -0.266 OA
HETATM    3  N1  UNL     1      -1.650  -0.347  -0.352  1.00  0.00    -0.276 N 
HETATM    4  C13 UNL     1      -3.013  -0.909  -0.424  1.00  0.00     0.173 A 
HETATM    5  C14 UNL     1      -3.583   0.229   0.328  1.00  0.00     0.049 A 
HETATM    6  C15 UNL     1      -4.481   1.193  -0.487  1.00  0.00     0.058 C 
HETATM    7  C16 UNL     1      -5.700   0.547  -1.182  1.00  0.00     0.271 C 
HETATM    8  N2  UNL     1      -6.180  -0.679  -0.531  1.00  0.00     0.083 N 
HETATM    9  C17 UNL     1      -6.516  -0.478   0.884  1.00  0.00     0.269 C 
HETATM   10  C18 UNL     1      -5.376  -1.007   1.754  1.00  0.00     0.032 C 
HETATM   11  C19 UNL     1      -4.132  -0.106   1.745  1.00  0.00     0.030 C 
HETATM   12  N3  UNL     1      -2.232   0.742   0.367  1.00  0.00    -0.224 NA
HETATM   13  H16 UNL     1      -7.045  -0.981  -1.037  1.00  0.00     0.315 HD
HETATM   14  H23 UNL     1      -1.825   0.731   1.333  1.00  0.00     0.147 HD
ENDROOT
BRANCH   1  15
HETATM   15  C11 UNL     1       0.831   0.127  -0.589  1.00  0.00     0.034 A 
HETATM   16  C10 UNL     1       0.685   1.525  -0.592  1.00  0.00     0.017 A 
HETATM   17  C9  UNL     1       1.801   2.351  -0.447  1.00  0.00     0.002 A 
HETATM   18  C8  UNL     1       3.074   1.798  -0.304  1.00  0.00     0.012 A 
HETATM   19  C7  UNL     1       3.248   0.403  -0.310  1.00  0.00    -0.025 A 
HETATM   20  C20 UNL     1       2.119  -0.424  -0.459  1.00  0.00     0.029 A 
BRANCH  19  21
HETATM   21  C6  UNL     1       4.603  -0.187  -0.162  1.00  0.00    -0.025 A 
HETATM   22  C5  UNL     1       4.803  -1.322   0.644  1.00  0.00     0.012 A 
HETATM   23  C4  UNL     1       6.077  -1.881   0.775  1.00  0.00     0.001 A 
HETATM   24  C3  UNL     1       7.165  -1.313   0.110  1.00  0.00     0.007 A 
HETATM   25  C2  UNL     1       6.989  -0.171  -0.684  1.00  0.00    -0.061 A 
HETATM   26  C1  UNL     1       8.150   0.414  -1.433  1.00  0.00     0.048 C 
HETATM   27  C21 UNL     1       5.706   0.379  -0.829  1.00  0.00     0.019 A 
ENDBRANCH  19  21
ENDBRANCH   1  15
TORSDOF 2
