REMARK  5 active torsions:
REMARK  status: ('A' for Active; 'I' for Inactive)
REMARK    1  A    between atoms: C2_2  and  C3_3 
REMARK    2  A    between atoms: C3_3  and  O1_4 
REMARK    3  A    between atoms: N1_9  and  C7_10 
REMARK    4  A    between atoms: C7_10  and  C8_11 
REMARK    5  A    between atoms: C11_14  and  C12_15 
ROOT
HETATM    1  C8  UNL     1       0.723   0.571   0.895  1.00  0.00    -0.030 A 
HETATM    2  C9  UNL     1       1.211  -0.741   0.830  1.00  0.00     0.010 A 
HETATM    3  C10 UNL     1       2.520  -0.988   0.405  1.00  0.00     0.013 A 
HETATM    4  C11 UNL     1       3.364   0.075   0.039  1.00  0.00    -0.026 A 
HETATM    5  C18 UNL     1       2.870   1.390   0.108  1.00  0.00     0.013 A 
HETATM    6  C19 UNL     1       1.561   1.636   0.532  1.00  0.00     0.010 A 
ENDROOT
BRANCH   1   7
HETATM    7  C7  UNL     1      -0.692   0.825   1.344  1.00  0.00     0.311 C 
BRANCH   7   8
HETATM    8  N1  UNL     1      -1.651   0.219   0.394  1.00  0.00     0.095 N 
HETATM    9  C6  UNL     1      -1.790   1.036  -0.840  1.00  0.00     0.299 C 
HETATM   10  C5  UNL     1      -2.916   2.106  -0.819  1.00  0.00     0.198 C 
HETATM   11  O2  UNL     1      -4.209   1.668  -0.424  1.00  0.00    -0.389 OA
HETATM   12  C4  UNL     1      -4.502   0.363  -0.883  1.00  0.00     0.180 C 
HETATM   13  C2  UNL     1      -4.036  -0.700   0.162  1.00  0.00     0.025 C 
HETATM   14  C1  UNL     1      -3.535  -1.970  -0.562  1.00  0.00     0.021 C 
HETATM   15  C20 UNL     1      -2.911  -0.139   1.089  1.00  0.00     0.286 C 
BRANCH  13  16
HETATM   16  C3  UNL     1      -5.244  -1.112   1.050  1.00  0.00     0.177 C 
BRANCH  16  17
HETATM   17  O1  UNL     1      -5.815   0.004   1.686  1.00  0.00    -0.400 OA
HETATM   18  H6  UNL     1      -5.414   0.060   2.592  1.00  0.00     0.209 HD
ENDBRANCH  16  17
ENDBRANCH  13  16
ENDBRANCH   7   8
ENDBRANCH   1   7
BRANCH   4  19
HETATM   19  C12 UNL     1       4.755  -0.186  -0.413  1.00  0.00    -0.026 A 
HETATM   20  C13 UNL     1       5.811   0.649  -0.002  1.00  0.00     0.012 A 
HETATM   21  C14 UNL     1       7.119   0.400  -0.429  1.00  0.00     0.001 A 
HETATM   22  C15 UNL     1       7.387  -0.681  -1.271  1.00  0.00     0.000 A 
HETATM   23  C16 UNL     1       6.349  -1.517  -1.687  1.00  0.00     0.001 A 
HETATM   24  C17 UNL     1       5.039  -1.274  -1.262  1.00  0.00     0.012 A 
ENDBRANCH   4  19
TORSDOF 5
