REMARK  2 active torsions:
REMARK  status: ('A' for Active; 'I' for Inactive)
REMARK       I    between atoms: C2_2  and  N1_4 
REMARK    1  A    between atoms: N2_16  and  C14_17 
REMARK    2  A    between atoms: C18_21  and  C19_22 
REMARK       I    between atoms: C19_22  and  N3_23 
ROOT
HETATM    1  C1  UNL     1      -3.366   2.936  -2.364  1.00  0.00     0.117 C 
HETATM    2  C2  UNL     1      -3.996   1.635  -1.965  1.00  0.00     0.215 C 
HETATM    3  O1  UNL     1      -4.802   1.092  -2.770  1.00  0.00    -0.274 OA
HETATM    4  N1  UNL     1      -3.713   0.998  -0.697  1.00  0.00    -0.351 N 
HETATM    5  C3  UNL     1      -4.701   0.038  -0.192  1.00  0.00     0.130 C 
HETATM    6  C4  UNL     1      -4.431  -0.411   1.243  1.00  0.00     0.059 C 
HETATM    7  C5  UNL     1      -3.304  -1.415   1.329  1.00  0.00    -0.049 A 
HETATM    8  C6  UNL     1      -3.598  -2.620   2.005  1.00  0.00     0.007 A 
HETATM    9  C7  UNL     1      -2.650  -3.628   2.133  1.00  0.00     0.001 A 
HETATM   10  C8  UNL     1      -1.386  -3.460   1.592  1.00  0.00     0.001 A 
HETATM   11  C9  UNL     1      -1.060  -2.279   0.933  1.00  0.00     0.008 A 
HETATM   12  C10 UNL     1      -1.987  -1.212   0.794  1.00  0.00    -0.040 A 
HETATM   13  C11 UNL     1      -1.493   0.056   0.033  1.00  0.00     0.021 C 
HETATM   14  C12 UNL     1      -1.146  -0.321  -1.435  1.00  0.00     0.037 C 
HETATM   15  C13 UNL     1       0.371  -0.427  -1.532  1.00  0.00     0.125 C 
HETATM   16  N2  UNL     1       0.898   0.127  -0.297  1.00  0.00    -0.365 N 
HETATM   17  C21 UNL     1      -0.140   0.530   0.639  1.00  0.00     0.140 C 
HETATM   18  C22 UNL     1      -2.466   1.270   0.043  1.00  0.00     0.141 C 
ENDROOT
BRANCH  16  19
HETATM   19  C14 UNL     1       2.302   0.278  -0.006  1.00  0.00     0.125 A 
HETATM   20  C15 UNL     1       3.287  -0.170  -0.899  1.00  0.00     0.058 A 
HETATM   21  C16 UNL     1       4.647  -0.003  -0.591  1.00  0.00    -0.041 A 
HETATM   22  C17 UNL     1       5.679  -0.473  -1.584  1.00  0.00     0.049 C 
HETATM   23  C18 UNL     1       5.010   0.598   0.640  1.00  0.00     0.055 A 
HETATM   24  C20 UNL     1       3.987   1.031   1.498  1.00  0.00     0.136 A 
HETATM   25  N4  UNL     1       2.684   0.863   1.161  1.00  0.00    -0.242 NA
BRANCH  23  26
HETATM   26  C19 UNL     1       6.424   0.769   1.059  1.00  0.00     0.251 C 
HETATM   27  N3  UNL     1       6.837   1.932   1.778  1.00  0.00    -0.366 N 
HETATM   28  H20 UNL     1       7.824   2.021   2.107  1.00  0.00     0.159 HD
HETATM   29  H21 UNL     1       6.185   2.731   1.937  1.00  0.00     0.159 HD
HETATM   30  O2  UNL     1       7.274  -0.124   0.799  1.00  0.00    -0.268 OA
ENDBRANCH  23  26
ENDBRANCH  16  19
TORSDOF 2
