REMARK  3 active torsions:
REMARK  status: ('A' for Active; 'I' for Inactive)
REMARK    1  A    between atoms: C5_5  and  S1_6 
REMARK    2  A    between atoms: S1_6  and  C6_7 
REMARK    3  A    between atoms: C6_7  and  C7_8 
ROOT
HETATM    1  C7  UNL     1      -1.047   0.407   0.723  1.00  0.00     0.048 C 
HETATM    2  C8  UNL     1      -1.278   0.199   2.232  1.00  0.00     0.134 C 
HETATM    3  N1  UNL     1      -2.480   0.873   2.724  1.00  0.00    -0.342 N 
HETATM    4  C9  UNL     1      -3.743   1.006   2.048  1.00  0.00     0.322 C 
HETATM    5  O1  UNL     1      -4.731   1.426   2.711  1.00  0.00    -0.247 OA
HETATM    6  N2  UNL     1      -3.903   0.770   0.635  1.00  0.00    -0.304 N 
HETATM    7  C10 UNL     1      -4.898   1.562  -0.094  1.00  0.00     0.161 C 
HETATM    8  C11 UNL     1      -3.328  -0.382  -0.009  1.00  0.00     0.048 A 
HETATM    9  C12 UNL     1      -4.171  -1.301  -0.660  1.00  0.00     0.072 A 
HETATM   10  C13 UNL     1      -3.640  -2.393  -1.343  1.00  0.00     0.118 A 
HETATM   11  F1  UNL     1      -4.465  -3.272  -1.964  1.00  0.00    -0.206 F 
HETATM   12  C14 UNL     1      -2.261  -2.579  -1.390  1.00  0.00     0.043 A 
HETATM   13  C15 UNL     1      -1.409  -1.678  -0.749  1.00  0.00     0.013 A 
HETATM   14  C16 UNL     1      -1.928  -0.564  -0.050  1.00  0.00    -0.025 A 
HETATM   15  H11 UNL     1      -2.442   1.210   3.713  1.00  0.00     0.164 HD
ENDROOT
BRANCH   1  16
HETATM   16  C6  UNL     1       0.457   0.378   0.353  1.00  0.00     0.090 C 
BRANCH  16  17
HETATM   17  S1  UNL     1       1.370  -1.026   1.105  1.00  0.00    -0.129 SA
BRANCH  17  18
HETATM   18  C5  UNL     1       2.904  -0.635   0.262  1.00  0.00     0.000 A 
HETATM   19  C4  UNL     1       3.835   0.222   0.860  1.00  0.00     0.019 A 
HETATM   20  C3  UNL     1       5.031   0.525   0.204  1.00  0.00     0.008 A 
HETATM   21  C2  UNL     1       5.301  -0.019  -1.062  1.00  0.00    -0.062 A 
HETATM   22  C1  UNL     1       6.601   0.275  -1.749  1.00  0.00     0.048 C 
HETATM   23  C18 UNL     1       4.373  -0.895  -1.648  1.00  0.00     0.008 A 
HETATM   24  C17 UNL     1       3.178  -1.197  -0.990  1.00  0.00     0.019 A 
ENDBRANCH  17  18
ENDBRANCH  16  17
ENDBRANCH   1  16
TORSDOF 3
