REMARK  3 active torsions:
REMARK  status: ('A' for Active; 'I' for Inactive)
REMARK    1  A    between atoms: C7_7  and  C8_8 
REMARK    2  A    between atoms: C9_10  and  C10_11 
REMARK       I    between atoms: C10_11  and  N2_13 
REMARK    3  A    between atoms: N2_13  and  C11_14 
ROOT
HETATM    1  C10 UNL     1      -0.014  -1.443   0.921  1.00  0.00     0.271 C 
HETATM    2  O1  UNL     1       0.630  -2.332   1.540  1.00  0.00    -0.266 OA
HETATM    3  N2  UNL     1       0.681  -0.345   0.307  1.00  0.00    -0.340 N 
HETATM    4  H8  UNL     1       0.140   0.329  -0.282  1.00  0.00     0.163 HD
ENDROOT
BRANCH   3   5
HETATM    5  C11 UNL     1       2.144  -0.228   0.318  1.00  0.00     0.201 C 
HETATM    6  C12 UNL     1       2.534   1.242   0.470  1.00  0.00     0.210 C 
HETATM    7  O2  UNL     1       3.852   1.352   0.986  1.00  0.00    -0.346 OA
HETATM    8  C13 UNL     1       5.026   0.904   0.364  1.00  0.00     0.095 A 
HETATM    9  C14 UNL     1       6.230   1.232   1.002  1.00  0.00     0.039 A 
HETATM   10  C18 UNL     1       5.062   0.171  -0.855  1.00  0.00     0.068 A 
HETATM   11  C15 UNL     1       7.458   0.879   0.443  1.00  0.00     0.003 A 
HETATM   12  C16 UNL     1       7.499   0.192  -0.766  1.00  0.00     0.002 A 
HETATM   13  C17 UNL     1       6.312  -0.156  -1.411  1.00  0.00     0.032 A 
HETATM   14  N3  UNL     1       3.885  -0.249  -1.570  1.00  0.00    -0.323 N 
HETATM   15  C19 UNL     1       2.708  -0.790  -0.955  1.00  0.00     0.247 C 
HETATM   16  H16 UNL     1       4.001  -0.466  -2.586  1.00  0.00     0.169 HD
HETATM   17  O3  UNL     1       2.127  -1.763  -1.509  1.00  0.00    -0.271 OA
ENDBRANCH   3   5
BRANCH   1  18
HETATM   18  C9  UNL     1      -1.483  -1.540   0.830  1.00  0.00     0.132 A 
HETATM   19  N1  UNL     1      -2.227  -0.604   0.179  1.00  0.00    -0.235 NA
HETATM   20  C8  UNL     1      -3.551  -0.876   0.219  1.00  0.00     0.109 A 
HETATM   21  S1  UNL     1      -3.836  -2.322   1.037  1.00  0.00    -0.079 SA
HETATM   22  C20 UNL     1      -2.214  -2.589   1.385  1.00  0.00     0.089 A 
BRANCH  20  23
HETATM   23  C7  UNL     1      -4.564  -0.055  -0.485  1.00  0.00     0.006 A 
HETATM   24  C2  UNL     1      -5.859   0.199   0.042  1.00  0.00    -0.049 A 
HETATM   25  C1  UNL     1      -6.289  -0.296   1.398  1.00  0.00     0.049 C 
HETATM   26  C3  UNL     1      -6.776   0.947  -0.719  1.00  0.00     0.007 A 
HETATM   27  C4  UNL     1      -6.412   1.471  -1.959  1.00  0.00     0.001 A 
HETATM   28  C5  UNL     1      -5.130   1.256  -2.459  1.00  0.00     0.001 A 
HETATM   29  C6  UNL     1      -4.212   0.501  -1.728  1.00  0.00     0.015 A 
ENDBRANCH  20  23
ENDBRANCH   1  18
TORSDOF 3
