REMARK  3 active torsions:
REMARK  status: ('A' for Active; 'I' for Inactive)
REMARK    1  A    between atoms: C1_2  and  C2_3 
REMARK    2  A    between atoms: C1_2  and  C10_14 
REMARK    3  A    between atoms: C13_17  and  C14_18 
ROOT
HETATM    1  C10 UNL     1       2.487  -1.388   0.629  1.00  0.00     0.015 A 
HETATM    2  C11 UNL     1       2.004  -0.070   0.571  1.00  0.00     0.016 A 
HETATM    3  C12 UNL     1       0.629   0.181   0.539  1.00  0.00     0.013 A 
HETATM    4  C13 UNL     1      -0.292  -0.880   0.577  1.00  0.00    -0.026 A 
HETATM    5  C28 UNL     1       0.193  -2.198   0.653  1.00  0.00     0.013 A 
HETATM    6  C29 UNL     1       1.568  -2.448   0.684  1.00  0.00     0.016 A 
ENDROOT
BRANCH   4   7
HETATM    7  C14 UNL     1      -1.753  -0.613   0.541  1.00  0.00    -0.025 A 
HETATM    8  C15 UNL     1      -2.631  -1.342   1.357  1.00  0.00     0.013 A 
HETATM    9  C16 UNL     1      -4.003  -1.093   1.321  1.00  0.00     0.014 A 
HETATM   10  C17 UNL     1      -4.537  -0.107   0.472  1.00  0.00    -0.017 A 
HETATM   11  C18 UNL     1      -3.658   0.632  -0.352  1.00  0.00    -0.037 A 
HETATM   12  C27 UNL     1      -6.009   0.141   0.479  1.00  0.00     0.001 A 
HETATM   13  C19 UNL     1      -2.278   0.369  -0.314  1.00  0.00     0.020 A 
HETATM   14  C20 UNL     1      -4.188   1.657  -1.312  1.00  0.00     0.142 C 
HETATM   15  C21 UNL     1      -4.981   0.952  -2.363  1.00  0.00     0.226 C 
HETATM   16  O4  UNL     1      -4.590   0.978  -3.561  1.00  0.00    -0.273 OA
HETATM   17  N2  UNL     1      -6.170   0.228  -2.023  1.00  0.00    -0.326 N 
HETATM   18  C22 UNL     1      -6.771   0.265  -0.717  1.00  0.00     0.045 A 
HETATM   19  H14 UNL     1      -6.728  -0.174  -2.811  1.00  0.00     0.169 HD
HETATM   20  C23 UNL     1      -8.166   0.396  -0.635  1.00  0.00     0.030 A 
HETATM   21  C24 UNL     1      -8.807   0.451   0.602  1.00  0.00     0.002 A 
HETATM   22  C25 UNL     1      -8.063   0.366   1.777  1.00  0.00     0.001 A 
HETATM   23  C26 UNL     1      -6.678   0.209   1.718  1.00  0.00     0.014 A 
ENDBRANCH   4   7
BRANCH   1  24
HETATM   24  C1  UNL     1       3.943  -1.666   0.680  1.00  0.00     0.192 C 
HETATM   25  O1  UNL     1       4.349  -2.666   1.333  1.00  0.00    -0.287 OA
BRANCH  24  26
HETATM   26  C2  UNL     1       4.939  -0.810  -0.010  1.00  0.00     0.015 A 
HETATM   27  C3  UNL     1       4.634  -0.192  -1.235  1.00  0.00     0.018 A 
HETATM   28  C4  UNL     1       5.587   0.592  -1.890  1.00  0.00     0.031 A 
HETATM   29  C5  UNL     1       6.860   0.767  -1.334  1.00  0.00     0.045 A 
HETATM   30  C6  UNL     1       7.181   0.148  -0.112  1.00  0.00    -0.006 A 
HETATM   31  N1  UNL     1       7.828   1.591  -1.992  1.00  0.00    -0.302 N 
HETATM   32  C7  UNL     1       6.226  -0.653   0.533  1.00  0.00     0.027 A 
HETATM   33  C8  UNL     1       8.585   0.240   0.437  1.00  0.00     0.221 C 
HETATM   34  O2  UNL     1       9.283   1.391  -0.044  1.00  0.00    -0.299 OA
HETATM   35  C9  UNL     1       9.025   1.945  -1.299  1.00  0.00     0.365 C 
HETATM   36  O3  UNL     1       9.822   2.783  -1.795  1.00  0.00    -0.238 OA
HETATM   37  H6  UNL     1       7.625   2.010  -2.927  1.00  0.00     0.171 HD
ENDBRANCH  24  26
ENDBRANCH   1  24
TORSDOF 3
