REMARK  1 active torsions:
REMARK  status: ('A' for Active; 'I' for Inactive)
REMARK    1  A    between atoms: C4_4  and  C5_5 
REMARK       I    between atoms: C5_5  and  N1_7 
ROOT
HETATM    1  C5  UNL     1       2.184   0.821  -0.997  1.00  0.00     0.259 C 
HETATM    2  O1  UNL     1       2.350   1.750  -1.833  1.00  0.00    -0.267 OA
HETATM    3  N1  UNL     1       0.906   0.656  -0.362  1.00  0.00    -0.346 N 
HETATM    4  C6  UNL     1       0.734   0.147   0.990  1.00  0.00     0.127 C 
HETATM    5  C7  UNL     1      -0.698   0.514   1.375  1.00  0.00     0.041 C 
HETATM    6  C8  UNL     1      -1.440   0.699   0.031  1.00  0.00     0.035 C 
HETATM    7  C9  UNL     1      -0.306   1.295  -0.840  1.00  0.00     0.145 C 
HETATM    8  C10 UNL     1      -1.973  -0.674  -0.443  1.00  0.00    -0.033 A 
HETATM    9  C11 UNL     1      -1.383  -1.350  -1.544  1.00  0.00     0.009 A 
HETATM   10  C12 UNL     1      -1.841  -2.596  -1.965  1.00  0.00     0.001 A 
HETATM   11  C13 UNL     1      -2.877  -3.225  -1.291  1.00  0.00     0.001 A 
HETATM   12  C14 UNL     1      -3.450  -2.618  -0.178  1.00  0.00     0.012 A 
HETATM   13  C15 UNL     1      -3.020  -1.354   0.266  1.00  0.00    -0.026 A 
HETATM   14  C16 UNL     1      -3.649  -0.877   1.531  1.00  0.00     0.056 C 
HETATM   15  C17 UNL     1      -3.983   0.383   1.830  1.00  0.00     0.144 C 
HETATM   16  F1  UNL     1      -4.694   0.611   2.963  1.00  0.00    -0.204 F 
HETATM   17  C18 UNL     1      -3.708   1.521   0.952  1.00  0.00     0.078 A 
HETATM   18  N2  UNL     1      -4.534   2.575   0.827  1.00  0.00    -0.363 N 
HETATM   19  C19 UNL     1      -3.996   3.386  -0.099  1.00  0.00     0.089 A 
HETATM   20  C20 UNL     1      -2.809   2.856  -0.560  1.00  0.00     0.027 A 
HETATM   21  C21 UNL     1      -2.605   1.669   0.135  1.00  0.00    -0.012 A 
HETATM   22  H16 UNL     1      -5.440   2.724   1.325  1.00  0.00     0.165 HD
ENDROOT
BRANCH   1  23
HETATM   23  C4  UNL     1       3.318  -0.071  -0.679  1.00  0.00     0.103 A 
HETATM   24  C3  UNL     1       4.572   0.479  -0.392  1.00  0.00     0.051 A 
HETATM   25  C2  UNL     1       5.641  -0.368  -0.090  1.00  0.00     0.052 A 
HETATM   26  C1  UNL     1       6.986   0.194   0.246  1.00  0.00     0.072 C 
HETATM   27  N4  UNL     1       5.445  -1.712  -0.089  1.00  0.00    -0.177 NA
HETATM   28  N3  UNL     1       4.259  -2.248  -0.380  1.00  0.00    -0.242 N 
HETATM   29  C22 UNL     1       3.185  -1.470  -0.689  1.00  0.00     0.277 A 
HETATM   30  H19 UNL     1       4.161  -3.288  -0.379  1.00  0.00     0.192 HD
HETATM   31  O2  UNL     1       2.091  -2.012  -1.003  1.00  0.00    -0.266 OA
ENDBRANCH   1  23
TORSDOF 1
