REMARK  2 active torsions:
REMARK  status: ('A' for Active; 'I' for Inactive)
REMARK    1  A    between atoms: C9_11  and  C10_12 
REMARK       I    between atoms: C10_12  and  N2_14 
REMARK    2  A    between atoms: C13_17  and  C14_18 
ROOT
HETATM    1  C10 UNL     1      -1.313  -1.319  -0.783  1.00  0.00     0.254 C 
HETATM    2  O2  UNL     1      -0.969  -2.439  -1.248  1.00  0.00    -0.267 OA
HETATM    3  N2  UNL     1      -0.496  -0.668   0.211  1.00  0.00    -0.344 N 
HETATM    4  C11 UNL     1       0.347  -1.491   1.092  1.00  0.00     0.127 C 
HETATM    5  C12 UNL     1       1.775  -1.638   0.534  1.00  0.00     0.034 C 
HETATM    6  C13 UNL     1       2.319  -0.337  -0.106  1.00  0.00     0.054 C 
HETATM    7  C20 UNL     1       2.087   0.859   0.814  1.00  0.00    -0.042 A 
HETATM    8  C21 UNL     1       3.133   1.411   1.584  1.00  0.00     0.008 A 
HETATM    9  C22 UNL     1       2.892   2.469   2.461  1.00  0.00     0.001 A 
HETATM   10  C23 UNL     1       1.606   2.985   2.600  1.00  0.00     0.001 A 
HETATM   11  C24 UNL     1       0.551   2.438   1.871  1.00  0.00     0.009 A 
HETATM   12  C25 UNL     1       0.768   1.364   0.990  1.00  0.00    -0.033 A 
HETATM   13  C26 UNL     1      -0.417   0.808   0.215  1.00  0.00     0.165 C 
ENDROOT
BRANCH   1  14
HETATM   14  C9  UNL     1      -2.546  -0.684  -1.287  1.00  0.00     0.039 A 
HETATM   15  C4  UNL     1      -3.646  -0.408  -0.438  1.00  0.00    -0.025 A 
HETATM   16  C3  UNL     1      -3.619  -0.766   1.041  1.00  0.00     0.060 C 
HETATM   17  C5  UNL     1      -4.772   0.268  -0.967  1.00  0.00     0.039 A 
HETATM   18  C2  UNL     1      -5.022  -1.079   1.573  1.00  0.00     0.127 C 
HETATM   19  N1  UNL     1      -5.945  -0.002   1.230  1.00  0.00    -0.357 N 
HETATM   20  C1  UNL     1      -5.912   0.573  -0.077  1.00  0.00     0.252 C 
HETATM   21  H1  UNL     1      -6.656   0.317   1.927  1.00  0.00     0.162 HD
HETATM   22  O1  UNL     1      -6.840   1.341  -0.449  1.00  0.00    -0.268 OA
HETATM   23  C6  UNL     1      -4.805   0.622  -2.325  1.00  0.00     0.017 A 
HETATM   24  C7  UNL     1      -3.734   0.306  -3.159  1.00  0.00     0.002 A 
HETATM   25  C8  UNL     1      -2.613  -0.346  -2.647  1.00  0.00     0.017 A 
ENDBRANCH   1  14
BRANCH   6  26
HETATM   26  C14 UNL     1       3.751  -0.461  -0.619  1.00  0.00    -0.050 A 
HETATM   27  C15 UNL     1       4.104   0.177  -1.824  1.00  0.00     0.008 A 
HETATM   28  C16 UNL     1       5.411   0.106  -2.314  1.00  0.00     0.001 A 
HETATM   29  C17 UNL     1       6.388  -0.590  -1.602  1.00  0.00     0.000 A 
HETATM   30  C18 UNL     1       6.062  -1.210  -0.394  1.00  0.00     0.001 A 
HETATM   31  C19 UNL     1       4.756  -1.143   0.101  1.00  0.00     0.008 A 
ENDBRANCH   6  26
TORSDOF 2
