REMARK  4 active torsions:
REMARK  status: ('A' for Active; 'I' for Inactive)
REMARK    1  A    between atoms: C4_4  and  C5_5 
REMARK    2  A    between atoms: C5_5  and  C6_7 
REMARK    3  A    between atoms: C10_11  and  C23_26 
REMARK    4  A    between atoms: C31_34  and  C32_35 
ROOT
HETATM    1  C6  UNL     1      -0.575  -1.374   2.610  1.00  0.00     0.045 C 
HETATM    2  C7  UNL     1      -1.204  -0.220   3.281  1.00  0.00     0.018 C 
HETATM    3  C8  UNL     1      -1.353   1.024   2.785  1.00  0.00     0.002 C 
HETATM    4  C9  UNL     1      -1.104   1.529   1.404  1.00  0.00     0.013 C 
HETATM    5  C10 UNL     1      -1.744   1.164   0.257  1.00  0.00    -0.016 C 
HETATM    6  C11 UNL     1      -2.538  -0.091   0.113  1.00  0.00    -0.023 C 
HETATM    7  C12 UNL     1      -2.398  -0.890  -1.043  1.00  0.00     0.013 C 
HETATM    8  C13 UNL     1      -2.843  -2.218  -1.035  1.00  0.00     0.014 C 
HETATM    9  C14 UNL     1      -3.256  -2.781   0.178  1.00  0.00    -0.009 C 
HETATM   10  C15 UNL     1      -3.349  -1.982   1.324  1.00  0.00     0.045 C 
HETATM   11  C16 UNL     1      -3.296  -0.597   1.171  1.00  0.00     0.042 C 
HETATM   12  N1  UNL     1      -2.718  -2.499   2.492  1.00  0.00    -0.347 N 
HETATM   13  C17 UNL     1      -3.433  -2.622   3.759  1.00  0.00     0.156 C 
HETATM   14  C18 UNL     1      -1.279  -2.533   2.415  1.00  0.00     0.088 C 
HETATM   15  C19 UNL     1      -0.623  -3.779   1.908  1.00  0.00     0.144 C 
HETATM   16  F1  UNL     1       0.713  -3.927   2.108  1.00  0.00    -0.204 F 
HETATM   17  C20 UNL     1      -1.233  -4.834   1.326  1.00  0.00     0.045 C 
HETATM   18  C21 UNL     1      -2.651  -5.063   0.955  1.00  0.00     0.004 C 
HETATM   19  C22 UNL     1      -3.473  -4.222   0.312  1.00  0.00     0.014 C 
ENDROOT
BRANCH   1  20
HETATM   20  C5  UNL     1       0.899  -1.304   2.536  1.00  0.00     0.194 C 
HETATM   21  O1  UNL     1       1.575  -1.703   3.535  1.00  0.00    -0.287 OA
BRANCH  20  22
HETATM   22  C4  UNL     1       1.581  -0.653   1.399  1.00  0.00     0.015 A 
HETATM   23  C3  UNL     1       2.656   0.213   1.633  1.00  0.00     0.023 A 
HETATM   24  C2  UNL     1       3.303   0.868   0.572  1.00  0.00    -0.050 A 
HETATM   25  C1  UNL     1       4.432   1.819   0.870  1.00  0.00     0.049 C 
HETATM   26  C31 UNL     1       2.855   0.657  -0.750  1.00  0.00    -0.020 A 
HETATM   27  C30 UNL     1       1.779  -0.216  -0.984  1.00  0.00     0.014 A 
HETATM   28  C29 UNL     1       1.144  -0.859   0.082  1.00  0.00     0.016 A 
BRANCH  26  29
HETATM   29  C32 UNL     1       3.476   1.353  -1.897  1.00  0.00    -0.025 A 
HETATM   30  C33 UNL     1       4.281   0.643  -2.803  1.00  0.00     0.012 A 
HETATM   31  C34 UNL     1       4.909   1.308  -3.860  1.00  0.00     0.001 A 
HETATM   32  C35 UNL     1       4.723   2.680  -4.033  1.00  0.00     0.000 A 
HETATM   33  C36 UNL     1       3.922   3.393  -3.135  1.00  0.00     0.001 A 
HETATM   34  C37 UNL     1       3.307   2.736  -2.064  1.00  0.00     0.012 A 
ENDBRANCH  26  29
ENDBRANCH  20  22
ENDBRANCH   1  20
BRANCH   5  35
HETATM   35  C23 UNL     1      -1.606   2.034  -0.950  1.00  0.00    -0.025 A 
HETATM   36  C24 UNL     1      -0.375   2.629  -1.289  1.00  0.00     0.012 A 
HETATM   37  C25 UNL     1      -0.273   3.438  -2.424  1.00  0.00     0.001 A 
HETATM   38  C26 UNL     1      -1.392   3.662  -3.236  1.00  0.00     0.000 A 
HETATM   39  C27 UNL     1      -2.617   3.075  -2.911  1.00  0.00     0.001 A 
HETATM   40  C28 UNL     1      -2.725   2.271  -1.773  1.00  0.00     0.012 A 
ENDBRANCH   5  35
TORSDOF 4
