REMARK  3 active torsions:
REMARK  status: ('A' for Active; 'I' for Inactive)
REMARK    1  A    between atoms: C7_8  and  C8_9 
REMARK    2  A    between atoms: C11_12  and  C12_13 
REMARK    3  A    between atoms: C12_13  and  N2_14 
ROOT
HETATM    1  C8  UNL     1       2.327  -0.916   0.012  1.00  0.00     0.091 A 
HETATM    2  C9  UNL     1       1.723  -1.078  -1.240  1.00  0.00     0.036 A 
HETATM    3  C10 UNL     1       0.371  -1.405  -1.308  1.00  0.00     0.033 A 
HETATM    4  C11 UNL     1      -0.351  -1.576  -0.122  1.00  0.00     0.085 A 
HETATM    5  N4  UNL     1       0.288  -1.427   1.069  1.00  0.00    -0.153 NA
HETATM    6  N5  UNL     1       1.583  -1.113   1.134  1.00  0.00    -0.149 NA
ENDROOT
BRANCH   4   7
HETATM    7  C12 UNL     1      -1.816  -1.913  -0.143  1.00  0.00     0.333 C 
BRANCH   7   8
HETATM    8  N2  UNL     1      -2.611  -0.821   0.462  1.00  0.00     0.095 N 
HETATM    9  C13 UNL     1      -3.964  -1.306   0.807  1.00  0.00     0.274 C 
HETATM   10  C14 UNL     1      -4.605  -0.395   1.860  1.00  0.00     0.050 C 
HETATM   11  C15 UNL     1      -5.448   0.739   1.255  1.00  0.00     0.118 C 
HETATM   12  N3  UNL     1      -4.771   1.585   0.242  1.00  0.00    -0.415 N 
HETATM   13  C16 UNL     1      -5.405   1.528  -1.085  1.00  0.00     0.143 C 
HETATM   14  C17 UNL     1      -3.292   1.581   0.212  1.00  0.00     0.146 C 
HETATM   15  C18 UNL     1      -2.680   0.335  -0.459  1.00  0.00     0.292 C 
ENDBRANCH   7   8
ENDBRANCH   4   7
BRANCH   1  16
HETATM   16  C7  UNL     1       3.764  -0.592   0.137  1.00  0.00     0.018 A 
HETATM   17  C2  UNL     1       4.352   0.536  -0.486  1.00  0.00    -0.046 A 
HETATM   18  C1  UNL     1       3.545   1.519  -1.294  1.00  0.00     0.049 C 
HETATM   19  C3  UNL     1       5.734   0.745  -0.354  1.00  0.00     0.034 A 
HETATM   20  C4  UNL     1       6.501  -0.129   0.424  1.00  0.00     0.030 A 
HETATM   21  C5  UNL     1       7.973   0.088   0.576  1.00  0.00     0.070 C 
HETATM   22  N1  UNL     1       5.905  -1.183   1.040  1.00  0.00    -0.265 NA
HETATM   23  C6  UNL     1       4.575  -1.427   0.920  1.00  0.00     0.131 A 
ENDBRANCH   1  16
TORSDOF 3
