REMARK  1 active torsions:
REMARK  status: ('A' for Active; 'I' for Inactive)
REMARK       I    between atoms: C1_2  and  N1_3 
REMARK    1  A    between atoms: C1_2  and  C17_21 
REMARK       I    between atoms: N1_3  and  C2_4 
REMARK       I    between atoms: C2_4  and  N2_6 
ROOT
HETATM    1  O1  UNL     1       0.081  -2.482   0.002  1.00  0.00    -0.267 OA
HETATM    2  C1  UNL     1       0.171  -1.248   0.246  1.00  0.00     0.259 C 
HETATM    3  N1  UNL     1      -0.984  -0.517   0.698  1.00  0.00    -0.275 N 
HETATM    4  C2  UNL     1      -2.332  -1.016   0.609  1.00  0.00     0.329 C 
HETATM    5  O2  UNL     1      -2.545  -2.181   0.170  1.00  0.00    -0.246 OA
HETATM    6  N2  UNL     1      -3.454  -0.202   1.015  1.00  0.00    -0.298 N 
HETATM    7  C3  UNL     1      -3.305   1.261   1.123  1.00  0.00     0.138 C 
HETATM    8  C4  UNL     1      -4.634   2.017   1.018  1.00  0.00     0.060 C 
HETATM    9  C5  UNL     1      -5.381   1.619  -0.230  1.00  0.00    -0.045 A 
HETATM   10  C6  UNL     1      -5.465   2.514  -1.311  1.00  0.00     0.008 A 
HETATM   11  C7  UNL     1      -6.160   2.160  -2.469  1.00  0.00     0.001 A 
HETATM   12  C8  UNL     1      -6.772   0.910  -2.563  1.00  0.00     0.001 A 
HETATM   13  C9  UNL     1      -6.688   0.006  -1.501  1.00  0.00     0.013 A 
HETATM   14  C10 UNL     1      -5.990   0.346  -0.328  1.00  0.00    -0.017 A 
HETATM   15  C11 UNL     1      -5.893  -0.632   0.787  1.00  0.00     0.002 A 
HETATM   16  C12 UNL     1      -7.038  -1.334   1.204  1.00  0.00     0.014 A 
HETATM   17  C13 UNL     1      -6.966  -2.247   2.258  1.00  0.00     0.001 A 
HETATM   18  C14 UNL     1      -5.753  -2.472   2.908  1.00  0.00     0.002 A 
HETATM   19  C15 UNL     1      -4.606  -1.786   2.504  1.00  0.00     0.031 A 
HETATM   20  C16 UNL     1      -4.663  -0.861   1.448  1.00  0.00     0.050 A 
HETATM   21  H1  UNL     1      -0.822   0.405   1.160  1.00  0.00     0.173 HD
ENDROOT
BRANCH   2  22
HETATM   22  C17 UNL     1       1.479  -0.568   0.080  1.00  0.00     0.036 C 
HETATM   23  C18 UNL     1       2.672  -1.297   0.148  1.00  0.00     0.030 C 
HETATM   24  C19 UNL     1       3.938  -0.679  -0.034  1.00  0.00    -0.010 C 
HETATM   25  C20 UNL     1       3.986   0.740  -0.140  1.00  0.00     0.025 C 
HETATM   26  C34 UNL     1       5.143  -1.438  -0.122  1.00  0.00    -0.014 A 
HETATM   27  C21 UNL     1       2.763   1.441  -0.338  1.00  0.00     0.129 C 
HETATM   28  C23 UNL     1       5.243   1.406  -0.071  1.00  0.00    -0.011 A 
HETATM   29  F1  UNL     1       2.725   2.722  -0.780  1.00  0.00    -0.205 F 
HETATM   30  C22 UNL     1       1.538   0.792  -0.215  1.00  0.00     0.060 C 
HETATM   31  C24 UNL     1       5.329   2.803   0.162  1.00  0.00     0.013 A 
HETATM   32  C28 UNL     1       6.455   0.656  -0.155  1.00  0.00    -0.014 A 
HETATM   33  C25 UNL     1       6.553   3.463   0.172  1.00  0.00     0.001 A 
HETATM   34  C26 UNL     1       7.725   2.751  -0.011  1.00  0.00     0.001 A 
HETATM   35  C27 UNL     1       7.686   1.368  -0.155  1.00  0.00     0.013 A 
HETATM   36  C29 UNL     1       6.403  -0.769  -0.211  1.00  0.00    -0.014 A 
HETATM   37  C30 UNL     1       7.579  -1.559  -0.331  1.00  0.00     0.013 A 
HETATM   38  C31 UNL     1       7.522  -2.947  -0.364  1.00  0.00     0.001 A 
HETATM   39  C32 UNL     1       6.302  -3.594  -0.295  1.00  0.00     0.001 A 
HETATM   40  C33 UNL     1       5.127  -2.858  -0.188  1.00  0.00     0.013 A 
ENDBRANCH   2  22
TORSDOF 1
