REMARK  2 active torsions:
REMARK  status: ('A' for Active; 'I' for Inactive)
REMARK    1  A    between atoms: C4_4  and  C5_5 
REMARK    2  A    between atoms: C5_5  and  C6_6 
REMARK       I    between atoms: C6_6  and  N1_8 
ROOT
HETATM    1  C6  UNL     1       1.127   1.451  -0.843  1.00  0.00     0.239 C 
HETATM    2  O1  UNL     1       1.113   2.377  -1.701  1.00  0.00    -0.272 OA
HETATM    3  N1  UNL     1       0.101   0.437  -0.866  1.00  0.00    -0.287 N 
HETATM    4  C7  UNL     1      -1.113   0.688  -1.666  1.00  0.00     0.135 C 
HETATM    5  C8  UNL     1      -2.185  -0.411  -1.546  1.00  0.00     0.030 C 
HETATM    6  C9  UNL     1      -2.875  -0.472  -0.152  1.00  0.00    -0.038 C 
HETATM    7  C10 UNL     1      -1.844  -0.501   1.023  1.00  0.00     0.018 C 
HETATM    8  C11 UNL     1      -0.627  -1.408   0.772  1.00  0.00     0.104 C 
HETATM    9  C12 UNL     1       0.337  -0.835  -0.231  1.00  0.00     0.226 C 
HETATM   10  O2  UNL     1       1.377  -1.487  -0.514  1.00  0.00    -0.273 OA
HETATM   11  C13 UNL     1      -3.847   0.707   0.039  1.00  0.00     0.010 C 
HETATM   12  C14 UNL     1      -4.933   0.209   0.982  1.00  0.00     0.001 C 
HETATM   13  C15 UNL     1      -4.958  -1.311   0.852  1.00  0.00     0.001 C 
HETATM   14  C16 UNL     1      -3.808  -1.696  -0.076  1.00  0.00     0.010 C 
ENDROOT
BRANCH   1  15
HETATM   15  C5  UNL     1       2.225   1.447   0.189  1.00  0.00     0.069 A 
HETATM   16  C17 UNL     1       2.281   2.712   1.042  1.00  0.00     0.026 A 
HETATM   17  C18 UNL     1       1.821   1.403   1.659  1.00  0.00     0.026 A 
BRANCH  15  18
HETATM   18  C4  UNL     1       3.577   0.914  -0.197  1.00  0.00    -0.033 A 
HETATM   19  C3  UNL     1       4.112  -0.287   0.297  1.00  0.00     0.023 A 
HETATM   20  C2  UNL     1       5.366  -0.578  -0.222  1.00  0.00    -0.021 A 
HETATM   21  C1  UNL     1       6.154  -1.815   0.046  1.00  0.00     0.056 C 
HETATM   22  S1  UNL     1       5.789   0.624  -1.318  1.00  0.00    -0.106 SA
HETATM   23  C19 UNL     1       4.400   1.551  -1.122  1.00  0.00     0.058 A 
ENDBRANCH  15  18
ENDBRANCH   1  15
TORSDOF 2
