REMARK  4 active torsions:
REMARK  status: ('A' for Active; 'I' for Inactive)
REMARK    1  A    between atoms: C1_2  and  C2_3 
REMARK    2  A    between atoms: C1_2  and  C16_19 
REMARK    3  A    between atoms: C19_22  and  C20_23 
REMARK    4  A    between atoms: C22_25  and  C23_26 
ROOT
HETATM    1  C16 UNL     1       0.086  -1.182   0.526  1.00  0.00     0.053 A 
HETATM    2  C17 UNL     1       1.170  -1.912   0.015  1.00  0.00     0.019 A 
HETATM    3  C18 UNL     1       2.345  -1.262  -0.371  1.00  0.00     0.013 A 
HETATM    4  C19 UNL     1       2.465   0.133  -0.242  1.00  0.00    -0.023 A 
HETATM    5  C32 UNL     1       1.386   0.861   0.289  1.00  0.00     0.055 A 
HETATM    6  C33 UNL     1       0.210   0.212   0.676  1.00  0.00     0.131 A 
HETATM    7  F1  UNL     1      -0.789   0.943   1.232  1.00  0.00    -0.205 F 
ENDROOT
BRANCH   1   8
HETATM    8  C1  UNL     1      -1.147  -1.895   0.933  1.00  0.00     0.195 C 
HETATM    9  O1  UNL     1      -1.038  -2.998   1.535  1.00  0.00    -0.287 OA
BRANCH   8  10
HETATM   10  C2  UNL     1      -2.502  -1.364   0.640  1.00  0.00     0.015 A 
HETATM   11  C3  UNL     1      -2.734  -0.565  -0.489  1.00  0.00     0.016 A 
HETATM   12  C4  UNL     1      -4.013  -0.078  -0.762  1.00  0.00     0.014 A 
HETATM   13  C5  UNL     1      -5.098  -0.387   0.078  1.00  0.00    -0.017 A 
HETATM   14  C6  UNL     1      -4.873  -1.206   1.209  1.00  0.00    -0.037 A 
HETATM   15  C15 UNL     1      -6.454   0.140  -0.258  1.00  0.00     0.001 A 
HETATM   16  C7  UNL     1      -3.580  -1.686   1.479  1.00  0.00     0.024 A 
HETATM   17  C8  UNL     1      -5.991  -1.523   2.159  1.00  0.00     0.142 C 
HETATM   18  C9  UNL     1      -6.399  -0.261   2.845  1.00  0.00     0.226 C 
HETATM   19  O2  UNL     1      -6.241  -0.150   4.090  1.00  0.00    -0.273 OA
HETATM   20  N1  UNL     1      -6.948   0.834   2.101  1.00  0.00    -0.326 N 
HETATM   21  C10 UNL     1      -7.303   0.745   0.710  1.00  0.00     0.045 A 
HETATM   22  H6  UNL     1      -7.291   1.658   2.645  1.00  0.00     0.169 HD
HETATM   23  C11 UNL     1      -8.522   1.309   0.302  1.00  0.00     0.030 A 
HETATM   24  C12 UNL     1      -8.928   1.243  -1.031  1.00  0.00     0.002 A 
HETATM   25  C13 UNL     1      -8.118   0.620  -1.977  1.00  0.00     0.001 A 
HETATM   26  C14 UNL     1      -6.891   0.076  -1.597  1.00  0.00     0.014 A 
ENDBRANCH   8  10
ENDBRANCH   1   8
BRANCH   4  27
HETATM   27  C20 UNL     1       3.713   0.825  -0.653  1.00  0.00    -0.025 A 
HETATM   28  C21 UNL     1       4.971   0.265  -0.364  1.00  0.00     0.024 A 
HETATM   29  C22 UNL     1       6.158   0.914  -0.754  1.00  0.00    -0.025 A 
HETATM   30  C29 UNL     1       6.071   2.136  -1.442  1.00  0.00     0.012 A 
HETATM   31  C30 UNL     1       4.827   2.699  -1.731  1.00  0.00     0.002 A 
HETATM   32  C31 UNL     1       3.654   2.050  -1.340  1.00  0.00     0.012 A 
BRANCH  29  33
HETATM   33  C23 UNL     1       7.482   0.318  -0.441  1.00  0.00    -0.026 A 
HETATM   34  C24 UNL     1       7.719  -0.282   0.810  1.00  0.00     0.012 A 
HETATM   35  C25 UNL     1       8.967  -0.842   1.102  1.00  0.00     0.001 A 
HETATM   36  C26 UNL     1       9.989  -0.810   0.150  1.00  0.00     0.000 A 
HETATM   37  C27 UNL     1       9.766  -0.218  -1.094  1.00  0.00     0.001 A 
HETATM   38  C28 UNL     1       8.520   0.344  -1.391  1.00  0.00     0.012 A 
ENDBRANCH  29  33
ENDBRANCH   4  27
TORSDOF 4
