REMARK  2 active torsions:
REMARK  status: ('A' for Active; 'I' for Inactive)
REMARK    1  A    between atoms: O1_2  and  C2_3 
REMARK    2  A    between atoms: C9_10  and  N1_11 
ROOT
HETATM    1  C2  UNL     1       4.230   0.814   0.256  1.00  0.00     0.069 A 
HETATM    2  C3  UNL     1       4.421  -0.566   0.070  1.00  0.00     0.044 A 
HETATM    3  C4  UNL     1       3.326  -1.432  -0.092  1.00  0.00    -0.048 A 
HETATM    4  C5  UNL     1       3.588  -2.905  -0.289  1.00  0.00     0.049 C 
HETATM    5  C6  UNL     1       2.010  -0.904  -0.067  1.00  0.00    -0.020 A 
HETATM    6  C7  UNL     1       0.874  -1.722  -0.225  1.00  0.00     0.015 A 
HETATM    7  C8  UNL     1      -0.409  -1.173  -0.197  1.00  0.00     0.030 A 
HETATM    8  C9  UNL     1      -0.599   0.205  -0.012  1.00  0.00     0.036 A 
HETATM    9  C18 UNL     1       0.528   1.029   0.149  1.00  0.00     0.042 A 
HETATM   10  C19 UNL     1       1.824   0.489   0.122  1.00  0.00    -0.021 A 
HETATM   11  C20 UNL     1       2.934   1.329   0.280  1.00  0.00     0.049 A 
ENDROOT
BRANCH   8  12
HETATM   12  N1  UNL     1      -1.936   0.757   0.017  1.00  0.00    -0.336 N 
HETATM   13  C10 UNL     1      -2.231   1.900   0.905  1.00  0.00     0.232 C 
HETATM   14  C11 UNL     1      -3.698   2.127   1.204  1.00  0.00     0.236 C 
HETATM   15  O2  UNL     1      -4.116   3.312   1.285  1.00  0.00    -0.272 OA
HETATM   16  N2  UNL     1      -4.607   1.054   1.494  1.00  0.00    -0.355 N 
HETATM   17  C12 UNL     1      -4.369  -0.323   1.080  1.00  0.00     0.163 C 
HETATM   18  H12 UNL     1      -5.544   1.292   1.891  1.00  0.00     0.162 HD
HETATM   19  C13 UNL     1      -4.101  -0.352  -0.396  1.00  0.00    -0.011 A 
HETATM   20  C14 UNL     1      -5.033  -0.894  -1.292  1.00  0.00     0.030 A 
HETATM   21  C17 UNL     1      -2.924   0.230  -0.891  1.00  0.00     0.061 A 
HETATM   22  C15 UNL     1      -4.760  -0.872  -2.661  1.00  0.00     0.117 A 
HETATM   23  N3  UNL     1      -3.603  -0.323  -3.118  1.00  0.00    -0.271 NA
HETATM   24  C16 UNL     1      -2.688   0.219  -2.273  1.00  0.00     0.146 A 
ENDBRANCH   8  12
BRANCH   1  25
HETATM   25  O1  UNL     1       5.301   1.706   0.421  1.00  0.00    -0.356 OA
HETATM   26  C1  UNL     1       6.674   1.328   0.419  1.00  0.00     0.210 C 
ENDBRANCH   1  25
TORSDOF 2
