REMARK  6 active torsions:
REMARK  status: ('A' for Active; 'I' for Inactive)
REMARK       I    between atoms: C1_2  and  N1_3 
REMARK    1  A    between atoms: C1_2  and  C22_27 
REMARK       I    between atoms: N1_3  and  C2_4 
REMARK    2  A    between atoms: C2_4  and  C3_6 
REMARK    3  A    between atoms: C25_30  and  C45_50 
REMARK    4  A    between atoms: C26_31  and  C28_33 
REMARK    5  A    between atoms: C33_38  and  C34_39 
REMARK    6  A    between atoms: C39_44  and  C40_45 
ROOT
HETATM    1  O1  UNL     1       0.688  -1.449  -0.610  1.00  0.00    -0.267 OA
HETATM    2  C1  UNL     1      -0.393  -1.786  -0.073  1.00  0.00     0.258 C 
HETATM    3  N1  UNL     1      -0.476  -2.830   0.932  1.00  0.00    -0.288 N 
HETATM    4  C2  UNL     1       0.619  -3.707   1.237  1.00  0.00     0.275 C 
HETATM    5  O2  UNL     1       0.389  -4.833   1.761  1.00  0.00    -0.266 OA
HETATM    6  H1  UNL     1      -1.112  -2.620   1.756  1.00  0.00     0.172 HD
ENDROOT
BRANCH   2   7
HETATM    7  C22 UNL     1      -1.429  -0.753  -0.020  1.00  0.00     0.033 C 
HETATM    8  C23 UNL     1      -1.389   0.141   1.063  1.00  0.00     0.018 C 
HETATM    9  C24 UNL     1      -2.359   1.118   1.154  1.00  0.00     0.014 C 
HETATM   10  C25 UNL     1      -3.308   1.360   0.104  1.00  0.00    -0.014 C 
HETATM   11  C26 UNL     1      -3.350   0.473  -0.983  1.00  0.00    -0.013 C 
HETATM   12  C27 UNL     1      -2.422  -0.614  -1.002  1.00  0.00     0.030 C 
BRANCH  10  13
HETATM   13  C45 UNL     1      -4.016   2.688   0.122  1.00  0.00    -0.014 C 
HETATM   14  C40 UNL     1      -5.409   2.810   0.079  1.00  0.00    -0.014 C 
HETATM   15  C41 UNL     1      -5.977   4.084   0.402  1.00  0.00     0.013 C 
HETATM   16  C42 UNL     1      -5.201   5.138   0.916  1.00  0.00     0.001 C 
HETATM   17  C43 UNL     1      -3.815   5.016   0.965  1.00  0.00     0.001 C 
HETATM   18  C44 UNL     1      -3.228   3.829   0.507  1.00  0.00     0.013 C 
BRANCH  14  19
HETATM   19  C39 UNL     1      -6.356   1.634   0.038  1.00  0.00    -0.014 C 
HETATM   20  C34 UNL     1      -6.407   0.691  -1.002  1.00  0.00    -0.014 C 
HETATM   21  C35 UNL     1      -7.539  -0.203  -1.060  1.00  0.00     0.013 C 
HETATM   22  C36 UNL     1      -8.613  -0.085  -0.164  1.00  0.00     0.001 C 
HETATM   23  C37 UNL     1      -8.521   0.790   0.925  1.00  0.00     0.001 C 
HETATM   24  C38 UNL     1      -7.383   1.589   1.050  1.00  0.00     0.013 C 
BRANCH  20  25
HETATM   25  C33 UNL     1      -5.552   0.794  -2.234  1.00  0.00    -0.014 A 
HETATM   26  C28 UNL     1      -4.145   0.718  -2.225  1.00  0.00    -0.014 A 
HETATM   27  C29 UNL     1      -3.455   0.653  -3.490  1.00  0.00     0.013 A 
HETATM   28  C30 UNL     1      -4.166   0.576  -4.711  1.00  0.00     0.001 A 
HETATM   29  C31 UNL     1      -5.563   0.648  -4.709  1.00  0.00     0.001 A 
HETATM   30  C32 UNL     1      -6.235   0.809  -3.502  1.00  0.00     0.013 A 
ENDBRANCH  20  25
ENDBRANCH  14  19
ENDBRANCH  10  13
ENDBRANCH   2   7
BRANCH   4  31
HETATM   31  C3  UNL     1       2.001  -3.435   0.805  1.00  0.00     0.104 C 
HETATM   32  C4  UNL     1       2.815  -2.492   1.474  1.00  0.00     0.048 C 
HETATM   33  C5  UNL     1       3.981  -1.989   0.858  1.00  0.00    -0.011 C 
HETATM   34  C6  UNL     1       4.575  -2.880  -0.080  1.00  0.00     0.021 C 
HETATM   35  C21 UNL     1       4.244  -0.492   0.842  1.00  0.00    -0.014 A 
HETATM   36  C7  UNL     1       3.742  -3.784  -0.762  1.00  0.00     0.253 C 
HETATM   37  C8  UNL     1       6.035  -3.244   0.066  1.00  0.00     0.050 C 
HETATM   38  O3  UNL     1       4.178  -4.438  -1.741  1.00  0.00    -0.268 OA
HETATM   39  N2  UNL     1       2.460  -4.048  -0.319  1.00  0.00    -0.319 N 
HETATM   40  H3  UNL     1       1.845  -4.704  -0.848  1.00  0.00     0.169 HD
HETATM   41  C9  UNL     1       7.024  -2.274  -0.546  1.00  0.00     0.044 C 
HETATM   42  C10 UNL     1       7.570  -1.393   0.549  1.00  0.00    -0.047 A 
HETATM   43  C11 UNL     1       8.856  -1.674   1.109  1.00  0.00     0.008 A 
HETATM   44  C15 UNL     1       6.760  -0.441   1.187  1.00  0.00    -0.019 A 
HETATM   45  C12 UNL     1       9.329  -0.973   2.227  1.00  0.00     0.001 A 
HETATM   46  C13 UNL     1       8.495  -0.053   2.857  1.00  0.00     0.001 A 
HETATM   47  C14 UNL     1       7.212   0.169   2.376  1.00  0.00     0.013 A 
HETATM   48  C16 UNL     1       5.506   0.077   0.564  1.00  0.00    -0.014 A 
HETATM   49  C17 UNL     1       5.560   1.491   0.261  1.00  0.00     0.013 A 
HETATM   50  C18 UNL     1       4.399   2.262   0.188  1.00  0.00     0.001 A 
HETATM   51  C19 UNL     1       3.151   1.683   0.387  1.00  0.00     0.001 A 
HETATM   52  C20 UNL     1       3.078   0.363   0.776  1.00  0.00     0.013 A 
ENDBRANCH   4  31
TORSDOF 6
