REMARK  4 active torsions:
REMARK  status: ('A' for Active; 'I' for Inactive)
REMARK    1  A    between atoms: C4_4  and  C5_5 
REMARK    2  A    between atoms: C9_9  and  C10_10 
REMARK    3  A    between atoms: N2_27  and  C23_28 
REMARK    4  A    between atoms: C23_28  and  C24_29 
REMARK       I    between atoms: C24_29  and  N3_31 
ROOT
HETATM    1  C5  UNL     1       1.469  -0.888  -0.192  1.00  0.00     0.014 A 
HETATM    2  C6  UNL     1       1.572  -2.214  -0.646  1.00  0.00     0.015 A 
HETATM    3  C7  UNL     1       0.459  -2.871  -1.168  1.00  0.00     0.002 A 
HETATM    4  C8  UNL     1      -0.769  -2.214  -1.252  1.00  0.00     0.015 A 
HETATM    5  C9  UNL     1      -0.896  -0.883  -0.820  1.00  0.00     0.014 A 
HETATM    6  C20 UNL     1       0.229  -0.223  -0.285  1.00  0.00     0.138 A 
HETATM    7  F1  UNL     1       0.118   1.062   0.143  1.00  0.00    -0.204 F 
ENDROOT
BRANCH   1   8
HETATM    8  C4  UNL     1       2.659  -0.209   0.377  1.00  0.00    -0.016 A 
HETATM    9  C3  UNL     1       3.887  -0.256  -0.287  1.00  0.00     0.037 A 
HETATM   10  C2  UNL     1       5.015   0.377   0.259  1.00  0.00     0.012 A 
HETATM   11  C1  UNL     1       6.315   0.298  -0.506  1.00  0.00     0.068 C 
HETATM   12  N2  UNL     1       4.909   1.071   1.449  1.00  0.00    -0.310 N 
HETATM   13  C22 UNL     1       3.708   1.097   2.122  1.00  0.00     0.248 A 
HETATM   14  C21 UNL     1       2.580   0.466   1.597  1.00  0.00     0.087 A 
HETATM   15  O2  UNL     1       3.603   1.689   3.232  1.00  0.00    -0.268 OA
BRANCH  12  16
HETATM   16  C23 UNL     1       6.083   1.750   2.041  1.00  0.00     0.234 C 
BRANCH  16  17
HETATM   17  C24 UNL     1       6.875   0.796   2.888  1.00  0.00     0.233 C 
HETATM   18  O3  UNL     1       6.304   0.159   3.814  1.00  0.00    -0.272 OA
HETATM   19  N3  UNL     1       8.276   0.627   2.676  1.00  0.00    -0.369 N 
HETATM   20  H21 UNL     1       8.773   1.157   1.926  1.00  0.00     0.159 HD
HETATM   21  H22 UNL     1       8.822  -0.034   3.272  1.00  0.00     0.159 HD
ENDBRANCH  16  17
ENDBRANCH  12  16
ENDBRANCH   1   8
BRANCH   5  22
HETATM   22  C10 UNL     1      -2.204  -0.194  -0.933  1.00  0.00    -0.022 A 
HETATM   23  C11 UNL     1      -2.290   1.077  -1.511  1.00  0.00     0.014 A 
HETATM   24  C12 UNL     1      -3.520   1.723  -1.615  1.00  0.00     0.031 A 
HETATM   25  C13 UNL     1      -4.703   1.120  -1.152  1.00  0.00     0.041 A 
HETATM   26  C14 UNL     1      -4.631  -0.188  -0.595  1.00  0.00    -0.030 A 
HETATM   27  N1  UNL     1      -5.927   1.881  -1.269  1.00  0.00    -0.327 N 
HETATM   28  C15 UNL     1      -3.375  -0.818  -0.482  1.00  0.00     0.021 A 
HETATM   29  C16 UNL     1      -5.841  -0.944  -0.098  1.00  0.00     0.041 C 
HETATM   30  C17 UNL     1      -6.998  -0.882  -1.100  1.00  0.00     0.014 C 
HETATM   31  C18 UNL     1      -7.911   0.311  -0.828  1.00  0.00     0.103 C 
HETATM   32  C19 UNL     1      -7.167   1.596  -0.610  1.00  0.00     0.222 C 
HETATM   33  O1  UNL     1      -7.724   2.506   0.059  1.00  0.00    -0.273 OA
HETATM   34  H17 UNL     1      -5.852   2.846  -1.663  1.00  0.00     0.169 HD
ENDBRANCH   5  22
TORSDOF 4
