REMARK  3 active torsions:
REMARK  status: ('A' for Active; 'I' for Inactive)
REMARK    1  A    between atoms: C5_7  and  C6_8 
REMARK    2  A    between atoms: C13_17  and  N4_18 
REMARK    3  A    between atoms: C16_22  and  C17_23 
ROOT
HETATM    1  C6  UNL     1      -2.134  -0.050   0.627  1.00  0.00     0.087 A 
HETATM    2  N2  UNL     1      -3.424   0.245   0.956  1.00  0.00    -0.247 NA
HETATM    3  C7  UNL     1      -3.895   1.518   0.937  1.00  0.00     0.086 A 
HETATM    4  C8  UNL     1      -5.221   1.793   1.287  1.00  0.00     0.034 A 
HETATM    5  C9  UNL     1      -5.689   3.112   1.255  1.00  0.00     0.002 A 
HETATM    6  C10 UNL     1      -4.834   4.153   0.873  1.00  0.00     0.002 A 
HETATM    7  C11 UNL     1      -3.507   3.881   0.520  1.00  0.00     0.034 A 
HETATM    8  C12 UNL     1      -3.036   2.564   0.551  1.00  0.00     0.087 A 
HETATM    9  N3  UNL     1      -1.755   2.278   0.208  1.00  0.00    -0.227 NA
HETATM   10  C13 UNL     1      -1.278   1.003   0.233  1.00  0.00     0.151 A 
ENDROOT
BRANCH  10  11
HETATM   11  N4  UNL     1       0.084   0.759  -0.141  1.00  0.00    -0.362 N 
HETATM   12  C14 UNL     1       0.479   1.033  -1.526  1.00  0.00     0.150 C 
HETATM   13  C15 UNL     1       1.341  -0.114  -2.075  1.00  0.00     0.188 C 
HETATM   14  O2  UNL     1       2.736   0.041  -1.880  1.00  0.00    -0.380 OA
HETATM   15  C16 UNL     1       3.138   0.445  -0.574  1.00  0.00     0.156 C 
HETATM   16  C23 UNL     1       2.297  -0.134   0.597  1.00  0.00     0.056 C 
HETATM   17  C24 UNL     1       1.086   0.748   0.931  1.00  0.00     0.127 C 
BRANCH  15  18
HETATM   18  C17 UNL     1       4.583   0.038  -0.393  1.00  0.00    -0.029 A 
HETATM   19  C18 UNL     1       4.983  -1.287  -0.646  1.00  0.00     0.010 A 
HETATM   20  C19 UNL     1       6.313  -1.672  -0.452  1.00  0.00     0.001 A 
HETATM   21  C20 UNL     1       7.253  -0.744   0.002  1.00  0.00     0.000 A 
HETATM   22  C21 UNL     1       6.863   0.571   0.269  1.00  0.00     0.001 A 
HETATM   23  C22 UNL     1       5.534   0.962   0.077  1.00  0.00     0.010 A 
ENDBRANCH  15  18
ENDBRANCH  10  11
BRANCH   1  24
HETATM   24  C5  UNL     1      -1.686  -1.502   0.578  1.00  0.00     0.072 C 
HETATM   25  C2  UNL     1      -1.987  -2.240  -0.764  1.00  0.00     0.090 C 
HETATM   26  C1  UNL     1      -3.162  -1.666  -1.567  1.00  0.00     0.033 C 
HETATM   27  N1  UNL     1      -2.296  -3.605  -0.376  1.00  0.00    -0.356 N 
HETATM   28  C3  UNL     1      -2.485  -3.674   1.021  1.00  0.00     0.218 C 
HETATM   29  H5  UNL     1      -2.456  -4.396  -1.039  1.00  0.00     0.162 HD
HETATM   30  O1  UNL     1      -2.820  -4.735   1.611  1.00  0.00    -0.274 OA
HETATM   31  C4  UNL     1      -2.288  -2.377   1.700  1.00  0.00     0.115 C 
ENDBRANCH   1  24
TORSDOF 3
