REMARK  2 active torsions:
REMARK  status: ('A' for Active; 'I' for Inactive)
REMARK    1  A    between atoms: C4_4  and  C5_5 
REMARK    2  A    between atoms: C21_24  and  C22_25 
REMARK       I    between atoms: C22_25  and  N2_27 
ROOT
HETATM    1  C1  UNL     1       0.146  -4.887  -1.788  1.00  0.00     0.048 C 
HETATM    2  C2  UNL     1       0.545  -3.595  -1.137  1.00  0.00    -0.060 A 
HETATM    3  C3  UNL     1      -0.421  -2.622  -0.855  1.00  0.00     0.020 A 
HETATM    4  C4  UNL     1      -0.061  -1.388  -0.291  1.00  0.00    -0.014 A 
HETATM    5  C18 UNL     1       1.301  -1.127   0.007  1.00  0.00    -0.012 A 
HETATM    6  C19 UNL     1       1.714   0.070   0.628  1.00  0.00     0.056 A 
HETATM    7  C20 UNL     1       3.064   0.303   0.902  1.00  0.00     0.133 A 
HETATM    8  F1  UNL     1       3.420   1.446   1.542  1.00  0.00    -0.205 F 
HETATM    9  C21 UNL     1       4.032  -0.652   0.560  1.00  0.00     0.071 A 
HETATM   10  C27 UNL     1       3.632  -1.862  -0.022  1.00  0.00     0.032 A 
HETATM   11  C28 UNL     1       2.279  -2.107  -0.302  1.00  0.00    -0.023 A 
HETATM   12  C29 UNL     1       1.894  -3.325  -0.879  1.00  0.00     0.019 A 
ENDROOT
BRANCH   4  13
HETATM   13  C5  UNL     1      -1.130  -0.393  -0.051  1.00  0.00    -0.025 A 
HETATM   14  C6  UNL     1      -1.143   0.814  -0.757  1.00  0.00     0.013 A 
HETATM   15  C7  UNL     1      -2.173   1.732  -0.562  1.00  0.00     0.008 A 
HETATM   16  C8  UNL     1      -3.218   1.465   0.339  1.00  0.00    -0.050 A 
HETATM   17  C9  UNL     1      -3.205   0.245   1.069  1.00  0.00    -0.033 A 
HETATM   18  C16 UNL     1      -4.310   2.507   0.482  1.00  0.00     0.039 C 
HETATM   19  C10 UNL     1      -2.167  -0.677   0.847  1.00  0.00     0.021 A 
HETATM   20  C11 UNL     1      -4.320  -0.149   2.003  1.00  0.00     0.166 C 
HETATM   21  N1  UNL     1      -5.478  -0.533   1.220  1.00  0.00    -0.333 N 
HETATM   22  C12 UNL     1      -6.044  -0.969   0.026  1.00  0.00     0.179 A 
HETATM   23  C17 UNL     1      -6.968  -0.863   1.054  1.00  0.00     0.243 A 
HETATM   24  C13 UNL     1      -6.059   0.111  -1.074  1.00  0.00     0.035 C 
HETATM   25  C14 UNL     1      -6.430   1.556  -0.644  1.00  0.00     0.003 C 
HETATM   26  C15 UNL     1      -5.258   2.552  -0.730  1.00  0.00     0.005 C 
HETATM   27  O1  UNL     1      -8.134  -0.968   1.515  1.00  0.00    -0.271 OA
ENDBRANCH   4  13
BRANCH   9  28
HETATM   28  C22 UNL     1       5.458  -0.421   0.857  1.00  0.00     0.256 C 
HETATM   29  O2  UNL     1       6.092  -1.290   1.515  1.00  0.00    -0.267 OA
HETATM   30  N2  UNL     1       6.138   0.761   0.396  1.00  0.00    -0.348 N 
HETATM   31  C23 UNL     1       5.716   1.536  -0.759  1.00  0.00     0.126 C 
HETATM   32  C26 UNL     1       7.439   1.167   0.899  1.00  0.00     0.126 C 
HETATM   33  C24 UNL     1       6.746   2.649  -0.905  1.00  0.00     0.021 C 
HETATM   34  C25 UNL     1       7.954   2.212  -0.082  1.00  0.00     0.021 C 
ENDBRANCH   9  28
TORSDOF 2
