REMARK  4 active torsions:
REMARK  status: ('A' for Active; 'I' for Inactive)
REMARK    1  A    between atoms: C2_2  and  C3_3 
REMARK    2  A    between atoms: C7_7  and  N1_8 
REMARK       I    between atoms: N1_8  and  C8_9 
REMARK       I    between atoms: C8_9  and  N2_11 
REMARK    3  A    between atoms: N2_11  and  C9_12 
REMARK    4  A    between atoms: C19_23  and  O3_24 
ROOT
HETATM    1  N1  UNL     1       1.475  -0.832   0.210  1.00  0.00    -0.306 N 
HETATM    2  C8  UNL     1       0.119  -0.710  -0.245  1.00  0.00     0.321 C 
HETATM    3  O1  UNL     1      -0.219   0.248  -0.996  1.00  0.00    -0.247 OA
HETATM    4  N2  UNL     1      -0.864  -1.657   0.197  1.00  0.00    -0.338 N 
HETATM    5  H9  UNL     1       1.647  -1.448   1.035  1.00  0.00     0.171 HD
HETATM    6  H10 UNL     1      -0.556  -2.422   0.843  1.00  0.00     0.164 HD
ENDROOT
BRANCH   1   7
HETATM    7  C7  UNL     1       2.574  -0.077  -0.337  1.00  0.00     0.070 A 
HETATM    8  C6  UNL     1       2.630   0.212  -1.712  1.00  0.00     0.032 A 
HETATM    9  C5  UNL     1       3.679   0.968  -2.235  1.00  0.00     0.003 A 
HETATM   10  C4  UNL     1       4.684   1.446  -1.396  1.00  0.00     0.010 A 
HETATM   11  C3  UNL     1       4.673   1.141  -0.025  1.00  0.00    -0.023 A 
HETATM   12  C19 UNL     1       3.623   0.357   0.503  1.00  0.00     0.101 A 
BRANCH  11  13
HETATM   13  C2  UNL     1       5.738   1.731   0.868  1.00  0.00     0.037 C 
HETATM   14  C1  UNL     1       5.274   3.058   1.459  1.00  0.00     0.010 C 
ENDBRANCH  11  13
BRANCH  12  15
HETATM   15  O3  UNL     1       3.602   0.040   1.865  1.00  0.00    -0.353 OA
HETATM   16  C20 UNL     1       4.204  -1.152   2.361  1.00  0.00     0.210 C 
ENDBRANCH  12  15
ENDBRANCH   1   7
BRANCH   4  17
HETATM   17  C9  UNL     1      -2.282  -1.540  -0.162  1.00  0.00     0.092 C 
HETATM   18  C10 UNL     1      -2.964  -2.921  -0.074  1.00  0.00     0.052 C 
HETATM   19  C11 UNL     1      -4.495  -2.855  -0.048  1.00  0.00     0.178 C 
HETATM   20  O2  UNL     1      -5.004  -1.915  -0.990  1.00  0.00    -0.351 OA
HETATM   21  C12 UNL     1      -5.054  -0.527  -0.783  1.00  0.00     0.075 A 
HETATM   22  C13 UNL     1      -6.052   0.185  -1.462  1.00  0.00     0.037 A 
HETATM   23  C17 UNL     1      -4.145   0.174   0.060  1.00  0.00    -0.023 A 
HETATM   24  C14 UNL     1      -6.197   1.561  -1.279  1.00  0.00     0.003 A 
HETATM   25  C15 UNL     1      -5.343   2.244  -0.414  1.00  0.00     0.001 A 
HETATM   26  C16 UNL     1      -4.325   1.558   0.251  1.00  0.00     0.010 A 
HETATM   27  C18 UNL     1      -2.972  -0.498   0.746  1.00  0.00     0.066 C 
ENDBRANCH   4  17
TORSDOF 4
