REMARK  2 active torsions:
REMARK  status: ('A' for Active; 'I' for Inactive)
REMARK       I    between atoms: C1_2  and  N1_3 
REMARK    1  A    between atoms: C1_2  and  C23_29 
REMARK       I    between atoms: N1_3  and  C2_4 
REMARK       I    between atoms: C2_4  and  N2_6 
REMARK       I    between atoms: N2_6  and  C3_7 
REMARK    2  A    between atoms: C3_7  and  C4_9 
ROOT
HETATM    1  O1  UNL     1       3.204  -0.277   3.807  1.00  0.00    -0.267 OA
HETATM    2  C1  UNL     1       3.063  -0.053   2.572  1.00  0.00     0.259 C 
HETATM    3  N1  UNL     1       1.746   0.014   1.997  1.00  0.00    -0.275 N 
HETATM    4  C2  UNL     1       0.532  -0.100   2.757  1.00  0.00     0.329 C 
HETATM    5  O2  UNL     1       0.563  -0.051   4.017  1.00  0.00    -0.246 OA
HETATM    6  N2  UNL     1      -0.718  -0.256   2.068  1.00  0.00    -0.275 N 
HETATM    7  C3  UNL     1      -1.949  -0.621   2.716  1.00  0.00     0.259 C 
HETATM    8  O3  UNL     1      -1.948  -0.967   3.929  1.00  0.00    -0.267 OA
HETATM    9  H1  UNL     1       1.656   0.043   0.956  1.00  0.00     0.173 HD
HETATM   10  H2  UNL     1      -0.705  -0.194   1.025  1.00  0.00     0.173 HD
ENDROOT
BRANCH   7  11
HETATM   11  C4  UNL     1      -3.219  -0.652   1.953  1.00  0.00     0.033 C 
HETATM   12  C5  UNL     1      -4.234  -1.535   2.319  1.00  0.00     0.018 C 
HETATM   13  C6  UNL     1      -5.396  -1.619   1.559  1.00  0.00     0.014 C 
HETATM   14  C7  UNL     1      -5.603  -0.803   0.421  1.00  0.00    -0.011 C 
HETATM   15  C8  UNL     1      -4.644   0.206   0.136  1.00  0.00     0.027 C 
HETATM   16  C22 UNL     1      -6.616  -1.169  -0.498  1.00  0.00    -0.014 A 
HETATM   17  C9  UNL     1      -3.435   0.218   0.876  1.00  0.00     0.033 C 
HETATM   18  C10 UNL     1      -4.825   1.230  -0.815  1.00  0.00     0.194 C 
HETATM   19  O4  UNL     1      -3.795   1.756  -1.329  1.00  0.00    -0.287 OA
HETATM   20  C11 UNL     1      -6.067   1.850  -1.044  1.00  0.00     0.026 A 
HETATM   21  C12 UNL     1      -6.057   3.251  -1.260  1.00  0.00     0.016 A 
HETATM   22  C16 UNL     1      -7.319   1.173  -1.042  1.00  0.00    -0.011 A 
HETATM   23  C13 UNL     1      -7.239   3.981  -1.350  1.00  0.00     0.001 A 
HETATM   24  C14 UNL     1      -8.460   3.335  -1.235  1.00  0.00     0.001 A 
HETATM   25  C15 UNL     1      -8.503   1.952  -1.093  1.00  0.00     0.013 A 
HETATM   26  C17 UNL     1      -7.426  -0.231  -1.200  1.00  0.00    -0.014 A 
HETATM   27  C18 UNL     1      -8.426  -0.729  -2.077  1.00  0.00     0.013 A 
HETATM   28  C19 UNL     1      -8.628  -2.093  -2.260  1.00  0.00     0.001 A 
HETATM   29  C20 UNL     1      -7.842  -3.005  -1.577  1.00  0.00     0.001 A 
HETATM   30  C21 UNL     1      -6.852  -2.554  -0.711  1.00  0.00     0.013 A 
ENDBRANCH   7  11
BRANCH   2  31
HETATM   31  C23 UNL     1       4.266   0.078   1.719  1.00  0.00     0.033 A 
HETATM   32  C24 UNL     1       4.247   0.866   0.561  1.00  0.00     0.018 A 
HETATM   33  C25 UNL     1       5.377   0.958  -0.251  1.00  0.00     0.014 A 
HETATM   34  C26 UNL     1       6.559   0.262   0.066  1.00  0.00    -0.015 A 
HETATM   35  C27 UNL     1       6.578  -0.555   1.231  1.00  0.00    -0.024 A 
HETATM   36  C37 UNL     1       7.753   0.440  -0.814  1.00  0.00    -0.018 A 
HETATM   37  C28 UNL     1       5.442  -0.608   2.056  1.00  0.00     0.029 A 
HETATM   38  C29 UNL     1       7.749  -1.367   1.643  1.00  0.00     0.008 C 
HETATM   39  C30 UNL     1       8.508  -2.060   0.790  1.00  0.00    -0.021 C 
HETATM   40  C31 UNL     1       8.280  -2.038  -0.688  1.00  0.00     0.066 C 
HETATM   41  C32 UNL     1       8.562  -0.655  -1.203  1.00  0.00    -0.044 A 
HETATM   42  C33 UNL     1       9.673  -0.440  -2.037  1.00  0.00     0.008 A 
HETATM   43  C34 UNL     1       9.982   0.844  -2.489  1.00  0.00     0.001 A 
HETATM   44  C35 UNL     1       9.192   1.927  -2.107  1.00  0.00     0.001 A 
HETATM   45  C36 UNL     1       8.086   1.729  -1.277  1.00  0.00     0.013 A 
ENDBRANCH   2  31
TORSDOF 2
