REMARK  3 active torsions:
REMARK  status: ('A' for Active; 'I' for Inactive)
REMARK    1  A    between atoms: C1_2  and  C2_3 
REMARK    2  A    between atoms: C1_2  and  C16_18 
REMARK    3  A    between atoms: C6_7  and  C7_8 
ROOT
HETATM    1  C16 UNL     1      -0.799   0.411  -0.591  1.00  0.00     0.029 A 
HETATM    2  C17 UNL     1      -0.500   1.695  -1.075  1.00  0.00     0.016 A 
HETATM    3  C18 UNL     1      -1.341   2.770  -0.802  1.00  0.00     0.002 A 
HETATM    4  C19 UNL     1      -2.500   2.579  -0.055  1.00  0.00     0.013 A 
HETATM    5  C20 UNL     1      -2.836   1.307   0.433  1.00  0.00    -0.010 A 
HETATM    6  C21 UNL     1      -1.978   0.206   0.172  1.00  0.00     0.035 A 
HETATM    7  C22 UNL     1      -2.252  -1.131   0.760  1.00  0.00     0.165 C 
HETATM    8  O2  UNL     1      -1.392  -1.638   1.530  1.00  0.00    -0.292 OA
HETATM    9  C23 UNL     1      -3.509  -1.912   0.481  1.00  0.00     0.123 C 
HETATM   10  C24 UNL     1      -4.281  -1.385  -0.707  1.00  0.00    -0.040 A 
HETATM   11  C25 UNL     1      -4.154  -2.013  -1.957  1.00  0.00     0.008 A 
HETATM   12  C26 UNL     1      -4.875  -1.546  -3.059  1.00  0.00     0.001 A 
HETATM   13  C27 UNL     1      -5.727  -0.449  -2.925  1.00  0.00     0.001 A 
HETATM   14  C28 UNL     1      -5.850   0.196  -1.692  1.00  0.00     0.013 A 
HETATM   15  C29 UNL     1      -5.121  -0.255  -0.582  1.00  0.00    -0.018 A 
HETATM   16  C30 UNL     1      -5.209   0.482   0.696  1.00  0.00    -0.014 A 
HETATM   17  C31 UNL     1      -6.415   0.473   1.413  1.00  0.00     0.013 A 
HETATM   18  C32 UNL     1      -6.510   1.133   2.641  1.00  0.00     0.001 A 
HETATM   19  C33 UNL     1      -5.405   1.812   3.157  1.00  0.00     0.001 A 
HETATM   20  C34 UNL     1      -4.203   1.841   2.445  1.00  0.00     0.013 A 
HETATM   21  C35 UNL     1      -4.090   1.172   1.215  1.00  0.00    -0.014 A 
ENDROOT
BRANCH   1  22
HETATM   22  C1  UNL     1       0.097  -0.714  -0.954  1.00  0.00     0.193 C 
HETATM   23  O1  UNL     1      -0.412  -1.757  -1.448  1.00  0.00    -0.287 OA
BRANCH  22  24
HETATM   24  C2  UNL     1       1.568  -0.638  -0.772  1.00  0.00     0.016 A 
HETATM   25  C3  UNL     1       2.137   0.293   0.146  1.00  0.00     0.028 A 
HETATM   26  C4  UNL     1       3.516   0.272   0.247  1.00  0.00    -0.023 A 
HETATM   27  C5  UNL     1       4.310  -0.564  -0.451  1.00  0.00    -0.015 A 
HETATM   28  C13 UNL     1       4.691   0.852   0.886  1.00  0.00     0.025 A 
HETATM   29  C6  UNL     1       5.487   0.023   0.193  1.00  0.00    -0.014 A 
HETATM   30  C14 UNL     1       3.830  -1.499  -1.350  1.00  0.00     0.014 A 
HETATM   31  C15 UNL     1       2.423  -1.531  -1.506  1.00  0.00     0.016 A 
BRANCH  29  32
HETATM   32  C7  UNL     1       6.941  -0.199   0.116  1.00  0.00    -0.022 A 
HETATM   33  C8  UNL     1       7.464  -1.201  -0.717  1.00  0.00     0.012 A 
HETATM   34  C9  UNL     1       8.845  -1.407  -0.789  1.00  0.00     0.004 A 
HETATM   35  C10 UNL     1       9.713  -0.614  -0.033  1.00  0.00     0.042 A 
HETATM   36  C11 UNL     1       9.200   0.386   0.798  1.00  0.00     0.117 A 
HETATM   37  F1  UNL     1      10.042   1.157   1.528  1.00  0.00    -0.206 F 
HETATM   38  C12 UNL     1       7.819   0.593   0.875  1.00  0.00     0.054 A 
ENDBRANCH  29  32
ENDBRANCH  22  24
ENDBRANCH   1  22
TORSDOF 3
