REMARK  3 active torsions:
REMARK  status: ('A' for Active; 'I' for Inactive)
REMARK    1  A    between atoms: N1_1  and  C1_2 
REMARK    2  A    between atoms: C5_6  and  C6_7 
REMARK    3  A    between atoms: C6_7  and  N2_8 
ROOT
HETATM    1  N2  UNL     1       0.245  -1.581   0.411  1.00  0.00    -0.367 N 
HETATM    2  C7  UNL     1       0.141  -2.518  -0.720  1.00  0.00     0.226 C 
HETATM    3  C8  UNL     1      -1.258  -2.632  -1.265  1.00  0.00     0.235 C 
HETATM    4  O1  UNL     1      -1.891  -3.712  -1.120  1.00  0.00    -0.272 OA
HETATM    5  N3  UNL     1      -1.893  -1.530  -1.925  1.00  0.00    -0.354 N 
HETATM    6  C9  UNL     1      -1.216  -0.252  -2.147  1.00  0.00     0.093 A 
HETATM    7  C10 UNL     1      -2.142   0.941  -1.977  1.00  0.00     0.037 A 
HETATM    8  C11 UNL     1      -1.078   0.652  -0.920  1.00  0.00     0.045 A 
HETATM    9  C12 UNL     1      -1.580   0.099   0.394  1.00  0.00    -0.025 A 
HETATM   10  C13 UNL     1      -2.646   0.728   1.060  1.00  0.00     0.010 A 
HETATM   11  C14 UNL     1      -3.077   0.260   2.304  1.00  0.00     0.001 A 
HETATM   12  C15 UNL     1      -2.434  -0.822   2.907  1.00  0.00     0.002 A 
HETATM   13  C16 UNL     1      -1.350  -1.433   2.273  1.00  0.00     0.030 A 
HETATM   14  C17 UNL     1      -0.911  -0.975   1.022  1.00  0.00     0.037 A 
HETATM   15  H10 UNL     1      -2.840  -1.676  -2.343  1.00  0.00     0.162 HD
ENDROOT
BRANCH   1  16
HETATM   16  C6  UNL     1       1.566  -1.324   0.995  1.00  0.00     0.162 C 
BRANCH  16  17
HETATM   17  C5  UNL     1       1.987   0.090   0.707  1.00  0.00    -0.038 A 
HETATM   18  C4  UNL     1       1.709   1.114   1.626  1.00  0.00     0.009 A 
HETATM   19  C3  UNL     1       2.041   2.437   1.327  1.00  0.00     0.003 A 
HETATM   20  C2  UNL     1       2.643   2.750   0.105  1.00  0.00     0.029 A 
HETATM   21  C1  UNL     1       2.915   1.739  -0.827  1.00  0.00     0.026 A 
HETATM   22  C18 UNL     1       2.582   0.410  -0.524  1.00  0.00     0.037 A 
BRANCH  21  23
HETATM   23  N1  UNL     1       3.518   2.061  -2.082  1.00  0.00    -0.399 N 
HETATM   24  H1  UNL     1       3.767   3.048  -2.319  1.00  0.00     0.156 HD
HETATM   25  H2  UNL     1       3.724   1.315  -2.783  1.00  0.00     0.156 HD
ENDBRANCH  21  23
ENDBRANCH  16  17
ENDBRANCH   1  16
TORSDOF 3
