REMARK  3 active torsions:
REMARK  status: ('A' for Active; 'I' for Inactive)
REMARK    1  A    between atoms: C6_6  and  O1_7 
REMARK    2  A    between atoms: C7_8  and  C8_9 
REMARK       I    between atoms: C8_9  and  N1_11 
REMARK       I    between atoms: N2_14  and  C11_15 
REMARK    3  A    between atoms: C11_15  and  C12_17 
ROOT
HETATM    1  C8  UNL     1      -1.852  -0.984  -0.929  1.00  0.00     0.261 C 
HETATM    2  O2  UNL     1      -1.557  -1.737  -1.898  1.00  0.00    -0.267 OA
HETATM    3  N1  UNL     1      -0.868  -0.720   0.101  1.00  0.00    -0.312 N 
HETATM    4  C9  UNL     1       0.240  -1.678   0.268  1.00  0.00     0.152 C 
HETATM    5  C10 UNL     1       1.395  -1.135   1.118  1.00  0.00     0.147 C 
HETATM    6  N2  UNL     1       1.983   0.061   0.493  1.00  0.00    -0.342 N 
HETATM    7  C11 UNL     1       3.333   0.014  -0.020  1.00  0.00     0.226 C 
HETATM    8  O3  UNL     1       4.073   1.031   0.087  1.00  0.00    -0.273 OA
HETATM    9  C16 UNL     1       1.243   1.342   0.410  1.00  0.00     0.118 C 
HETATM   10  C17 UNL     1       0.980   1.711  -1.055  1.00  0.00     0.037 C 
HETATM   11  C18 UNL     1      -0.055   1.349   1.214  1.00  0.00    -0.009 A 
HETATM   12  C19 UNL     1      -0.276   2.385   2.142  1.00  0.00     0.011 A 
HETATM   13  C20 UNL     1      -1.428   2.406   2.929  1.00  0.00     0.001 A 
HETATM   14  C21 UNL     1      -2.371   1.387   2.814  1.00  0.00     0.002 A 
HETATM   15  C22 UNL     1      -2.177   0.357   1.894  1.00  0.00     0.030 A 
HETATM   16  C23 UNL     1      -1.049   0.348   1.055  1.00  0.00     0.045 A 
ENDROOT
BRANCH   1  17
HETATM   17  C7  UNL     1      -3.235  -0.462  -0.860  1.00  0.00     0.071 A 
HETATM   18  C2  UNL     1      -3.557   0.863  -1.241  1.00  0.00    -0.043 A 
HETATM   19  C1  UNL     1      -2.512   1.820  -1.743  1.00  0.00     0.049 C 
HETATM   20  C3  UNL     1      -4.881   1.314  -1.112  1.00  0.00     0.008 A 
HETATM   21  C4  UNL     1      -5.882   0.456  -0.658  1.00  0.00     0.003 A 
HETATM   22  C5  UNL     1      -5.575  -0.862  -0.321  1.00  0.00     0.037 A 
HETATM   23  C6  UNL     1      -4.258  -1.326  -0.420  1.00  0.00     0.082 A 
BRANCH  23  24
HETATM   24  O1  UNL     1      -3.957  -2.643  -0.069  1.00  0.00    -0.360 OA
HETATM   25  H7  UNL     1      -4.672  -3.282   0.257  1.00  0.00     0.217 HD
ENDBRANCH  23  24
ENDBRANCH   1  17
BRANCH   7  26
HETATM   26  C12 UNL     1       3.884  -1.234  -0.683  1.00  0.00     0.104 C 
HETATM   27  C13 UNL     1       4.911  -1.910   0.184  1.00  0.00     0.042 C 
HETATM   28  C14 UNL     1       6.233  -1.367  -0.335  1.00  0.00     0.168 C 
HETATM   29  O4  UNL     1       6.037  -0.744  -1.585  1.00  0.00    -0.390 OA
HETATM   30  C15 UNL     1       4.683  -0.906  -1.935  1.00  0.00     0.181 C 
ENDBRANCH   7  26
TORSDOF 3
