REMARK  3 active torsions:
REMARK  status: ('A' for Active; 'I' for Inactive)
REMARK    1  A    between atoms: C1_2  and  O2_3 
REMARK    2  A    between atoms: C1_2  and  C2_4 
REMARK    3  A    between atoms: C18_22  and  C19_24 
ROOT
HETATM    1  C2  UNL     1      -3.661   2.663  -0.425  1.00  0.00     0.040 A 
HETATM    2  C3  UNL     1      -4.278   1.466  -0.822  1.00  0.00     0.019 A 
HETATM    3  C4  UNL     1      -3.552   0.275  -0.865  1.00  0.00     0.015 A 
HETATM    4  C5  UNL     1      -2.198   0.247  -0.504  1.00  0.00    -0.001 A 
HETATM    5  C6  UNL     1      -1.557   1.459  -0.129  1.00  0.00     0.042 A 
HETATM    6  C7  UNL     1      -2.302   2.645  -0.076  1.00  0.00     0.048 A 
HETATM    7  N1  UNL     1      -0.189   1.500   0.311  1.00  0.00    -0.372 N 
HETATM    8  C8  UNL     1       0.127   1.332   1.713  1.00  0.00     0.161 C 
HETATM    9  C9  UNL     1       1.245   0.344   1.666  1.00  0.00    -0.017 C 
HETATM   10  C10 UNL     1       1.108  -0.920   2.120  1.00  0.00     0.008 C 
HETATM   11  C11 UNL     1      -0.194  -1.407   2.608  1.00  0.00     0.001 C 
HETATM   12  C12 UNL     1      -1.196  -1.660   1.756  1.00  0.00     0.010 C 
HETATM   13  C13 UNL     1      -0.980  -1.794   0.301  1.00  0.00    -0.025 A 
HETATM   14  C14 UNL     1      -1.469  -1.033  -0.649  1.00  0.00    -0.014 A 
HETATM   15  C15 UNL     1      -1.204  -1.674  -1.957  1.00  0.00     0.208 A 
HETATM   16  O3  UNL     1      -0.410  -2.818  -1.719  1.00  0.00    -0.382 OA
HETATM   17  C16 UNL     1      -0.295  -2.951  -0.317  1.00  0.00     0.207 A 
HETATM   18  C17 UNL     1       0.961   1.151  -0.528  1.00  0.00     0.177 C 
HETATM   19  C18 UNL     1       2.077   0.723   0.460  1.00  0.00     0.171 C 
HETATM   20  F1  UNL     1       2.809   1.855   0.788  1.00  0.00    -0.231 F 
ENDROOT
BRANCH  19  21
HETATM   21  C19 UNL     1       3.071  -0.337  -0.023  1.00  0.00    -0.013 A 
HETATM   22  C20 UNL     1       4.089  -0.747   0.863  1.00  0.00     0.011 A 
HETATM   23  C21 UNL     1       5.040  -1.694   0.475  1.00  0.00     0.001 A 
HETATM   24  C22 UNL     1       5.011  -2.228  -0.812  1.00  0.00     0.000 A 
HETATM   25  C23 UNL     1       4.040  -1.803  -1.720  1.00  0.00     0.001 A 
HETATM   26  C24 UNL     1       3.085  -0.854  -1.339  1.00  0.00     0.011 A 
ENDBRANCH  19  21
BRANCH   1  27
HETATM   27  C1  UNL     1      -4.430   3.926  -0.370  1.00  0.00     0.176 C 
HETATM   28  O1  UNL     1      -5.652   3.944  -0.680  1.00  0.00    -0.646 OA
BRANCH  27  29
HETATM   29  O2  UNL     1      -3.811   5.109   0.025  1.00  0.00    -0.773 OA
HETATM   30  H1  UNL     1      -4.328   5.979   0.065  1.00  0.00     0.167 HD
ENDBRANCH  27  29
ENDBRANCH   1  27
TORSDOF 3
