REMARK  3 active torsions:
REMARK  status: ('A' for Active; 'I' for Inactive)
REMARK    1  A    between atoms: C14_16  and  C15_17 
REMARK    2  A    between atoms: C14_16  and  N2_23 
REMARK    3  A    between atoms: N2_23  and  C21_24 
ROOT
HETATM    1  O1  UNL     1      -0.435  -1.691  -1.494  1.00  0.00    -0.270 OA
HETATM    2  C1  UNL     1      -1.276  -1.208  -0.686  1.00  0.00     0.260 C 
HETATM    3  N1  UNL     1      -2.267  -2.090  -0.146  1.00  0.00    -0.324 N 
HETATM    4  C2  UNL     1      -3.577  -1.635   0.199  1.00  0.00     0.045 A 
HETATM    5  C3  UNL     1      -4.689  -2.262  -0.384  1.00  0.00     0.030 A 
HETATM    6  C4  UNL     1      -5.981  -1.812  -0.108  1.00  0.00     0.002 A 
HETATM    7  C5  UNL     1      -6.173  -0.738   0.760  1.00  0.00     0.001 A 
HETATM    8  C6  UNL     1      -5.076  -0.124   1.365  1.00  0.00     0.014 A 
HETATM    9  C7  UNL     1      -3.766  -0.572   1.103  1.00  0.00     0.002 A 
HETATM   10  C8  UNL     1      -2.622   0.062   1.808  1.00  0.00    -0.014 A 
HETATM   11  C9  UNL     1      -2.740   0.268   3.197  1.00  0.00     0.013 A 
HETATM   12  C10 UNL     1      -1.769   0.972   3.902  1.00  0.00     0.001 A 
HETATM   13  C11 UNL     1      -0.678   1.507   3.230  1.00  0.00     0.001 A 
HETATM   14  C12 UNL     1      -0.531   1.306   1.859  1.00  0.00     0.011 A 
HETATM   15  C13 UNL     1      -1.461   0.528   1.122  1.00  0.00    -0.005 A 
HETATM   16  C14 UNL     1      -1.272   0.298  -0.398  1.00  0.00     0.168 C 
HETATM   17  H1  UNL     1      -2.147  -3.111  -0.337  1.00  0.00     0.169 HD
ENDROOT
BRANCH  16  18
HETATM   18  C15 UNL     1      -2.408   0.997  -1.174  1.00  0.00    -0.016 A 
HETATM   19  C16 UNL     1      -2.918   0.466  -2.382  1.00  0.00     0.010 A 
HETATM   20  C17 UNL     1      -3.927   1.131  -3.085  1.00  0.00     0.001 A 
HETATM   21  C18 UNL     1      -4.421   2.349  -2.621  1.00  0.00     0.000 A 
HETATM   22  C19 UNL     1      -3.894   2.917  -1.461  1.00  0.00     0.001 A 
HETATM   23  C20 UNL     1      -2.886   2.258  -0.753  1.00  0.00     0.010 A 
ENDBRANCH  16  18
BRANCH  16  24
HETATM   24  N2  UNL     1       0.009   0.883  -0.874  1.00  0.00    -0.365 N 
HETATM   25  H15 UNL     1      -0.049   1.758  -1.446  1.00  0.00     0.161 HD
BRANCH  24  26
HETATM   26  C21 UNL     1       1.347   0.391  -0.609  1.00  0.00     0.030 A 
HETATM   27  C22 UNL     1       1.612  -0.582   0.368  1.00  0.00     0.030 A 
HETATM   28  C23 UNL     1       2.915  -1.017   0.609  1.00  0.00     0.015 A 
HETATM   29  C24 UNL     1       4.009  -0.490  -0.117  1.00  0.00    -0.008 A 
HETATM   30  C25 UNL     1       3.743   0.500  -1.099  1.00  0.00     0.045 A 
HETATM   31  C33 UNL     1       5.354  -0.907   0.098  1.00  0.00     0.002 A 
HETATM   32  C26 UNL     1       2.421   0.928  -1.329  1.00  0.00     0.047 A 
HETATM   33  C27 UNL     1       4.809   1.049  -1.836  1.00  0.00     0.257 A 
HETATM   34  O2  UNL     1       4.596   1.931  -2.713  1.00  0.00    -0.267 OA
HETATM   35  N3  UNL     1       6.082   0.636  -1.611  1.00  0.00    -0.322 N 
HETATM   36  C28 UNL     1       6.383  -0.311  -0.680  1.00  0.00     0.046 A 
HETATM   37  H19 UNL     1       6.850   1.066  -2.177  1.00  0.00     0.169 HD
HETATM   38  C29 UNL     1       7.721  -0.696  -0.495  1.00  0.00     0.030 A 
HETATM   39  C30 UNL     1       8.056  -1.663   0.451  1.00  0.00     0.002 A 
HETATM   40  C31 UNL     1       7.060  -2.257   1.220  1.00  0.00     0.001 A 
HETATM   41  C32 UNL     1       5.723  -1.889   1.051  1.00  0.00     0.014 A 
ENDBRANCH  24  26
ENDBRANCH  16  24
TORSDOF 3
