REMARK  2 active torsions:
REMARK  status: ('A' for Active; 'I' for Inactive)
REMARK    1  A    between atoms: C4_4  and  C5_5 
REMARK    2  A    between atoms: C13_14  and  C14_15 
REMARK       I    between atoms: C14_15  and  N1_17 
ROOT
HETATM    1  C1  UNL     1       0.437  -2.126  -0.059  1.00  0.00     0.049 C 
HETATM    2  C2  UNL     1       1.321  -0.945  -0.369  1.00  0.00    -0.042 A 
HETATM    3  C3  UNL     1       2.681  -0.987  -0.018  1.00  0.00     0.020 A 
HETATM    4  C4  UNL     1       3.539   0.084  -0.325  1.00  0.00    -0.022 A 
HETATM    5  C11 UNL     1       3.020   1.204  -0.993  1.00  0.00     0.055 A 
HETATM    6  C12 UNL     1       1.668   1.262  -1.339  1.00  0.00     0.133 A 
HETATM    7  F1  UNL     1       1.191   2.367  -1.966  1.00  0.00    -0.205 F 
HETATM    8  C13 UNL     1       0.809   0.200  -1.021  1.00  0.00     0.076 A 
ENDROOT
BRANCH   8   9
HETATM    9  C14 UNL     1      -0.618   0.302  -1.372  1.00  0.00     0.257 C 
HETATM   10  O1  UNL     1      -0.961   0.199  -2.580  1.00  0.00    -0.267 OA
HETATM   11  N1  UNL     1      -1.613   0.516  -0.355  1.00  0.00    -0.342 N 
HETATM   12  C15 UNL     1      -1.304   1.074   0.953  1.00  0.00     0.127 C 
HETATM   13  C22 UNL     1      -3.045   0.366  -0.587  1.00  0.00     0.100 C 
HETATM   14  C16 UNL     1      -2.636   1.165   1.684  1.00  0.00     0.026 C 
HETATM   15  C17 UNL     1      -3.696   1.138   0.579  1.00  0.00     0.012 C 
HETATM   16  C18 UNL     1      -5.056   0.613   1.079  1.00  0.00     0.026 C 
HETATM   17  C19 UNL     1      -6.057   0.460  -0.069  1.00  0.00     0.123 C 
HETATM   18  N2  UNL     1      -5.958  -0.856  -0.699  1.00  0.00    -0.361 N 
HETATM   19  C20 UNL     1      -4.748  -1.400  -1.244  1.00  0.00     0.219 C 
HETATM   20  H20 UNL     1      -6.852  -1.358  -0.904  1.00  0.00     0.162 HD
HETATM   21  O2  UNL     1      -4.825  -2.202  -2.213  1.00  0.00    -0.274 OA
HETATM   22  C21 UNL     1      -3.400  -1.133  -0.629  1.00  0.00     0.128 C 
ENDBRANCH   8   9
BRANCH   4  23
HETATM   23  C5  UNL     1       4.976   0.029   0.049  1.00  0.00    -0.026 A 
HETATM   24  C6  UNL     1       5.965   0.491  -0.839  1.00  0.00     0.012 A 
HETATM   25  C7  UNL     1       7.317   0.438  -0.485  1.00  0.00     0.001 A 
HETATM   26  C8  UNL     1       7.696  -0.074   0.758  1.00  0.00     0.000 A 
HETATM   27  C9  UNL     1       6.724  -0.536   1.649  1.00  0.00     0.001 A 
HETATM   28  C10 UNL     1       5.371  -0.486   1.299  1.00  0.00     0.012 A 
ENDBRANCH   4  23
TORSDOF 2
