REMARK  6 active torsions:
REMARK  status: ('A' for Active; 'I' for Inactive)
REMARK       I    between atoms: C1_2  and  N1_3 
REMARK    1  A    between atoms: C1_2  and  C23_27 
REMARK       I    between atoms: N1_3  and  C2_4 
REMARK    2  A    between atoms: C2_4  and  C3_6 
REMARK    3  A    between atoms: C26_30  and  C46_50 
REMARK    4  A    between atoms: C27_31  and  C29_33 
REMARK    5  A    between atoms: C34_38  and  C35_39 
REMARK    6  A    between atoms: C40_44  and  C41_45 
ROOT
HETATM    1  O1  UNL     1      -0.780  -1.723   1.554  1.00  0.00    -0.267 OA
HETATM    2  C1  UNL     1      -0.765  -0.580   1.022  1.00  0.00     0.258 C 
HETATM    3  N1  UNL     1       0.482   0.100   0.798  1.00  0.00    -0.289 N 
HETATM    4  C2  UNL     1       1.756  -0.430   1.215  1.00  0.00     0.258 C 
HETATM    5  O2  UNL     1       1.801  -1.370   2.056  1.00  0.00    -0.267 OA
HETATM    6  H1  UNL     1       0.467   0.926   0.162  1.00  0.00     0.172 HD
ENDROOT
BRANCH   2   7
HETATM    7  C23 UNL     1      -2.039   0.018   0.572  1.00  0.00     0.033 A 
HETATM    8  C24 UNL     1      -2.242   1.405   0.633  1.00  0.00     0.018 A 
HETATM    9  C25 UNL     1      -3.450   1.961   0.202  1.00  0.00     0.014 A 
HETATM   10  C26 UNL     1      -4.473   1.144  -0.306  1.00  0.00    -0.014 A 
HETATM   11  C27 UNL     1      -4.271  -0.251  -0.380  1.00  0.00    -0.013 A 
HETATM   12  C28 UNL     1      -3.061  -0.803   0.068  1.00  0.00     0.030 A 
BRANCH  10  13
HETATM   13  C46 UNL     1      -5.723   1.771  -0.796  1.00  0.00    -0.014 A 
HETATM   14  C41 UNL     1      -6.969   1.524  -0.173  1.00  0.00    -0.014 A 
HETATM   15  C42 UNL     1      -8.124   2.150  -0.668  1.00  0.00     0.013 A 
HETATM   16  C43 UNL     1      -8.050   3.004  -1.771  1.00  0.00     0.001 A 
HETATM   17  C44 UNL     1      -6.822   3.250  -2.386  1.00  0.00     0.001 A 
HETATM   18  C45 UNL     1      -5.662   2.645  -1.897  1.00  0.00     0.013 A 
BRANCH  14  19
HETATM   19  C40 UNL     1      -7.084   0.650   1.017  1.00  0.00    -0.014 A 
HETATM   20  C35 UNL     1      -6.876  -0.745   0.928  1.00  0.00    -0.014 A 
HETATM   21  C36 UNL     1      -7.046  -1.543   2.070  1.00  0.00     0.013 A 
HETATM   22  C37 UNL     1      -7.417  -0.967   3.287  1.00  0.00     0.001 A 
HETATM   23  C38 UNL     1      -7.631   0.409   3.372  1.00  0.00     0.001 A 
HETATM   24  C39 UNL     1      -7.471   1.214   2.243  1.00  0.00     0.013 A 
BRANCH  20  25
HETATM   25  C34 UNL     1      -6.524  -1.388  -0.356  1.00  0.00    -0.014 A 
HETATM   26  C29 UNL     1      -5.283  -1.145  -0.986  1.00  0.00    -0.014 A 
HETATM   27  C30 UNL     1      -4.984  -1.786  -2.199  1.00  0.00     0.013 A 
HETATM   28  C31 UNL     1      -5.910  -2.654  -2.785  1.00  0.00     0.001 A 
HETATM   29  C32 UNL     1      -7.135  -2.894  -2.163  1.00  0.00     0.001 A 
HETATM   30  C33 UNL     1      -7.437  -2.273  -0.950  1.00  0.00     0.013 A 
ENDBRANCH  20  25
ENDBRANCH  14  19
ENDBRANCH  10  13
ENDBRANCH   2   7
BRANCH   4  31
HETATM   31  C3  UNL     1       3.024   0.073   0.632  1.00  0.00     0.033 A 
HETATM   32  C4  UNL     1       4.108  -0.803   0.472  1.00  0.00     0.030 A 
HETATM   33  C5  UNL     1       5.298  -0.387  -0.150  1.00  0.00    -0.010 A 
HETATM   34  C6  UNL     1       5.412   0.953  -0.607  1.00  0.00     0.021 A 
HETATM   35  C22 UNL     1       6.343  -1.420  -0.366  1.00  0.00    -0.014 A 
HETATM   36  C7  UNL     1       4.330   1.831  -0.409  1.00  0.00     0.017 A 
HETATM   37  C9  UNL     1       6.593   1.478  -1.343  1.00  0.00     0.164 C 
HETATM   38  C8  UNL     1       3.156   1.402   0.208  1.00  0.00     0.018 A 
HETATM   39  O3  UNL     1       6.398   2.226  -2.340  1.00  0.00    -0.292 OA
HETATM   40  C10 UNL     1       8.013   1.179  -0.958  1.00  0.00     0.123 C 
HETATM   41  C11 UNL     1       8.172   1.017   0.535  1.00  0.00    -0.040 A 
HETATM   42  C12 UNL     1       8.532   2.123   1.325  1.00  0.00     0.008 A 
HETATM   43  C16 UNL     1       7.966  -0.236   1.152  1.00  0.00    -0.018 A 
HETATM   44  C13 UNL     1       8.735   1.973   2.700  1.00  0.00     0.001 A 
HETATM   45  C14 UNL     1       8.565   0.724   3.301  1.00  0.00     0.001 A 
HETATM   46  C15 UNL     1       8.181  -0.377   2.532  1.00  0.00     0.013 A 
HETATM   47  C17 UNL     1       7.564  -1.406   0.348  1.00  0.00    -0.014 A 
HETATM   48  C18 UNL     1       8.446  -2.494   0.239  1.00  0.00     0.013 A 
HETATM   49  C19 UNL     1       8.123  -3.588  -0.566  1.00  0.00     0.001 A 
HETATM   50  C20 UNL     1       6.922  -3.603  -1.276  1.00  0.00     0.001 A 
HETATM   51  C21 UNL     1       6.035  -2.529  -1.175  1.00  0.00     0.013 A 
ENDBRANCH   4  31
TORSDOF 6
