REMARK  1 active torsions:
REMARK  status: ('A' for Active; 'I' for Inactive)
REMARK    1  A    between atoms: C5_5  and  C6_6 
ROOT
HETATM    1  C1  UNL     1      -4.259  -3.377   1.794  1.00  0.00     0.050 C 
HETATM    2  C2  UNL     1      -2.930  -2.796   1.394  1.00  0.00    -0.034 A 
HETATM    3  C3  UNL     1      -1.762  -3.264   2.009  1.00  0.00     0.010 A 
HETATM    4  C4  UNL     1      -0.517  -2.747   1.653  1.00  0.00     0.014 A 
HETATM    5  C5  UNL     1      -0.411  -1.749   0.675  1.00  0.00    -0.013 A 
HETATM    6  C20 UNL     1      -1.581  -1.285   0.026  1.00  0.00     0.014 A 
HETATM    7  C21 UNL     1      -2.837  -1.820   0.378  1.00  0.00     0.055 A 
HETATM    8  N2  UNL     1      -4.015  -1.383  -0.324  1.00  0.00    -0.317 N 
HETATM    9  C22 UNL     1      -4.628  -2.266  -1.317  1.00  0.00     0.159 C 
HETATM   10  C23 UNL     1      -4.652  -0.142   0.029  1.00  0.00     0.259 C 
HETATM   11  O2  UNL     1      -5.856   0.057  -0.290  1.00  0.00    -0.267 OA
HETATM   12  C24 UNL     1      -3.937   0.899   0.797  1.00  0.00     0.043 A 
HETATM   13  C25 UNL     1      -4.529   1.397   1.970  1.00  0.00     0.018 A 
HETATM   14  C26 UNL     1      -3.898   2.395   2.714  1.00  0.00     0.001 A 
HETATM   15  C27 UNL     1      -2.679   2.921   2.288  1.00  0.00     0.001 A 
HETATM   16  C28 UNL     1      -2.087   2.452   1.113  1.00  0.00     0.013 A 
HETATM   17  C29 UNL     1      -2.701   1.437   0.360  1.00  0.00    -0.009 A 
HETATM   18  C30 UNL     1      -2.061   1.010  -0.908  1.00  0.00    -0.014 A 
HETATM   19  C31 UNL     1      -1.938   1.941  -1.953  1.00  0.00     0.013 A 
HETATM   20  C32 UNL     1      -1.292   1.591  -3.141  1.00  0.00     0.001 A 
HETATM   21  C33 UNL     1      -0.755   0.312  -3.296  1.00  0.00     0.001 A 
HETATM   22  C34 UNL     1      -0.862  -0.621  -2.263  1.00  0.00     0.013 A 
HETATM   23  C35 UNL     1      -1.508  -0.282  -1.063  1.00  0.00    -0.012 A 
ENDROOT
BRANCH   5  24
HETATM   24  C6  UNL     1       0.926  -1.193   0.360  1.00  0.00    -0.024 A 
HETATM   25  C7  UNL     1       1.963  -2.039  -0.052  1.00  0.00     0.013 A 
HETATM   26  C8  UNL     1       3.215  -1.514  -0.372  1.00  0.00     0.014 A 
HETATM   27  C9  UNL     1       3.461  -0.130  -0.289  1.00  0.00    -0.017 A 
HETATM   28  C10 UNL     1       2.418   0.724   0.139  1.00  0.00    -0.037 A 
HETATM   29  C19 UNL     1       4.805   0.397  -0.672  1.00  0.00     0.004 A 
HETATM   30  C11 UNL     1       1.167   0.182   0.474  1.00  0.00     0.020 A 
HETATM   31  C12 UNL     1       2.646   2.199   0.290  1.00  0.00     0.142 C 
HETATM   32  C13 UNL     1       3.615   2.414   1.406  1.00  0.00     0.226 C 
HETATM   33  O1  UNL     1       3.243   3.024   2.444  1.00  0.00    -0.273 OA
HETATM   34  N1  UNL     1       4.956   1.916   1.319  1.00  0.00    -0.326 N 
HETATM   35  C14 UNL     1       5.510   1.344   0.121  1.00  0.00     0.046 A 
HETATM   36  H11 UNL     1       5.611   2.169   2.094  1.00  0.00     0.169 HD
HETATM   37  C15 UNL     1       6.812   1.719  -0.249  1.00  0.00     0.033 A 
HETATM   38  C16 UNL     1       7.400   1.209  -1.405  1.00  0.00     0.044 A 
HETATM   39  C17 UNL     1       6.701   0.309  -2.205  1.00  0.00     0.117 A 
HETATM   40  F1  UNL     1       7.271  -0.180  -3.334  1.00  0.00    -0.206 F 
HETATM   41  C18 UNL     1       5.416  -0.097  -1.841  1.00  0.00     0.056 A 
ENDBRANCH   5  24
TORSDOF 1
