REMARK  2 active torsions:
REMARK  status: ('A' for Active; 'I' for Inactive)
REMARK       I    between atoms: C1_2  and  N1_3 
REMARK    1  A    between atoms: C1_2  and  C17_20 
REMARK       I    between atoms: N1_3  and  C2_4 
REMARK    2  A    between atoms: C2_4  and  C3_6 
ROOT
HETATM    1  O1  UNL     1      -0.144   3.208   0.915  1.00  0.00    -0.267 OA
HETATM    2  C1  UNL     1      -0.051   2.040   0.447  1.00  0.00     0.258 C 
HETATM    3  N1  UNL     1      -1.219   1.205   0.373  1.00  0.00    -0.289 N 
HETATM    4  C2  UNL     1      -2.444   1.494   1.065  1.00  0.00     0.259 C 
HETATM    5  O2  UNL     1      -2.475   2.372   1.970  1.00  0.00    -0.267 OA
HETATM    6  H1  UNL     1      -1.198   0.362  -0.243  1.00  0.00     0.172 HD
ENDROOT
BRANCH   2   7
HETATM    7  C17 UNL     1       1.260   1.563  -0.054  1.00  0.00     0.033 A 
HETATM    8  C18 UNL     1       2.268   2.497  -0.409  1.00  0.00     0.017 A 
HETATM    9  C19 UNL     1       3.523   2.061  -0.863  1.00  0.00     0.010 A 
HETATM   10  C20 UNL     1       3.742   0.691  -0.979  1.00  0.00    -0.036 A 
HETATM   11  C21 UNL     1       2.788  -0.218  -0.630  1.00  0.00    -0.043 A 
HETATM   12  C31 UNL     1       4.953  -0.035  -1.335  1.00  0.00     0.038 C 
HETATM   13  C22 UNL     1       1.542   0.180  -0.145  1.00  0.00     0.025 A 
HETATM   14  C23 UNL     1       3.402  -1.573  -0.674  1.00  0.00     0.049 C 
HETATM   15  C24 UNL     1       3.926  -1.954   0.747  1.00  0.00     0.185 C 
HETATM   16  C32 UNL     1       4.572  -1.293  -1.564  1.00  0.00     0.022 C 
HETATM   17  O3  UNL     1       5.363  -1.891   0.916  1.00  0.00    -0.350 OA
HETATM   18  C25 UNL     1       6.223  -0.785   0.695  1.00  0.00     0.076 A 
HETATM   19  C26 UNL     1       7.308  -0.616   1.565  1.00  0.00     0.037 A 
HETATM   20  C30 UNL     1       6.080   0.112  -0.405  1.00  0.00    -0.010 A 
HETATM   21  C27 UNL     1       8.210   0.436   1.385  1.00  0.00     0.003 A 
HETATM   22  C28 UNL     1       8.046   1.330   0.324  1.00  0.00     0.001 A 
HETATM   23  C29 UNL     1       6.984   1.171  -0.568  1.00  0.00     0.011 A 
ENDBRANCH   2   7
BRANCH   4  24
HETATM   24  C3  UNL     1      -3.665   0.705   0.783  1.00  0.00     0.044 A 
HETATM   25  C4  UNL     1      -4.299   0.089   1.863  1.00  0.00     0.030 A 
HETATM   26  C5  UNL     1      -5.411  -0.734   1.677  1.00  0.00    -0.024 A 
HETATM   27  C6  UNL     1      -6.002  -1.347   2.795  1.00  0.00     0.012 A 
HETATM   28  C10 UNL     1      -5.931  -0.959   0.374  1.00  0.00    -0.015 A 
HETATM   29  C7  UNL     1      -7.105  -2.182   2.642  1.00  0.00     0.001 A 
HETATM   30  C8  UNL     1      -7.628  -2.416   1.374  1.00  0.00     0.001 A 
HETATM   31  C9  UNL     1      -7.055  -1.816   0.251  1.00  0.00     0.013 A 
HETATM   32  C11 UNL     1      -5.314  -0.312  -0.741  1.00  0.00    -0.014 A 
HETATM   33  C12 UNL     1      -5.789  -0.470  -2.068  1.00  0.00     0.013 A 
HETATM   34  C16 UNL     1      -4.184   0.537  -0.525  1.00  0.00    -0.009 A 
HETATM   35  C13 UNL     1      -5.191   0.202  -3.133  1.00  0.00     0.001 A 
HETATM   36  C14 UNL     1      -4.118   1.054  -2.910  1.00  0.00     0.001 A 
HETATM   37  C15 UNL     1      -3.621   1.229  -1.622  1.00  0.00     0.013 A 
ENDBRANCH   4  24
TORSDOF 2
