REMARK  2 active torsions:
REMARK  status: ('A' for Active; 'I' for Inactive)
REMARK    1  A    between atoms: C4_4  and  C5_5 
REMARK    2  A    between atoms: C20_22  and  C21_23 
ROOT
HETATM    1  C1  UNL     1      -0.781  -2.656   0.666  1.00  0.00     0.049 C 
HETATM    2  C2  UNL     1      -0.038  -1.431   0.198  1.00  0.00    -0.050 A 
HETATM    3  C3  UNL     1       1.368  -1.448   0.186  1.00  0.00     0.020 A 
HETATM    4  C4  UNL     1       2.101  -0.322  -0.225  1.00  0.00    -0.025 A 
HETATM    5  C18 UNL     1       1.410   0.827  -0.640  1.00  0.00     0.013 A 
HETATM    6  C19 UNL     1       0.015   0.849  -0.650  1.00  0.00     0.014 A 
HETATM    7  C20 UNL     1      -0.721  -0.273  -0.244  1.00  0.00    -0.017 A 
ENDROOT
BRANCH   7   8
HETATM    8  C21 UNL     1      -2.199  -0.210  -0.293  1.00  0.00     0.014 A 
HETATM    9  C22 UNL     1      -2.903  -1.041  -1.166  1.00  0.00     0.016 A 
HETATM   10  C23 UNL     1      -4.293  -0.987  -1.220  1.00  0.00     0.014 A 
HETATM   11  C24 UNL     1      -5.019  -0.096  -0.408  1.00  0.00    -0.013 A 
HETATM   12  C25 UNL     1      -4.312   0.777   0.463  1.00  0.00     0.005 A 
HETATM   13  C35 UNL     1      -6.506  -0.132  -0.483  1.00  0.00     0.002 A 
HETATM   14  C26 UNL     1      -2.899   0.702   0.512  1.00  0.00     0.135 A 
HETATM   15  C27 UNL     1      -5.025   1.809   1.320  1.00  0.00     0.111 C 
HETATM   16  F1  UNL     1      -2.195   1.505   1.354  1.00  0.00    -0.205 F 
HETATM   17  C28 UNL     1      -5.900   1.183   2.414  1.00  0.00     0.025 C 
HETATM   18  C29 UNL     1      -5.781   2.781   0.454  1.00  0.00     0.230 C 
HETATM   19  O2  UNL     1      -5.576   4.016   0.605  1.00  0.00    -0.272 OA
HETATM   20  N2  UNL     1      -6.716   2.355  -0.546  1.00  0.00    -0.326 N 
HETATM   21  C30 UNL     1      -7.292   1.043  -0.589  1.00  0.00     0.045 A 
HETATM   22  H21 UNL     1      -7.182   3.106  -1.106  1.00  0.00     0.169 HD
HETATM   23  C31 UNL     1      -8.682   0.934  -0.758  1.00  0.00     0.030 A 
HETATM   24  C32 UNL     1      -9.302  -0.315  -0.776  1.00  0.00     0.002 A 
HETATM   25  C33 UNL     1      -8.541  -1.472  -0.633  1.00  0.00     0.001 A 
HETATM   26  C34 UNL     1      -7.156  -1.384  -0.490  1.00  0.00     0.014 A 
ENDBRANCH   7   8
BRANCH   4  27
HETATM   27  C5  UNL     1       3.587  -0.344  -0.217  1.00  0.00    -0.025 A 
HETATM   28  C6  UNL     1       4.282  -1.471  -0.672  1.00  0.00     0.013 A 
HETATM   29  C7  UNL     1       5.677  -1.501  -0.665  1.00  0.00     0.014 A 
HETATM   30  C8  UNL     1       6.429  -0.397  -0.198  1.00  0.00    -0.008 A 
HETATM   31  C9  UNL     1       5.723   0.747   0.264  1.00  0.00     0.044 A 
HETATM   32  C17 UNL     1       7.854  -0.387  -0.172  1.00  0.00     0.002 A 
HETATM   33  C10 UNL     1       4.314   0.760   0.249  1.00  0.00     0.030 A 
HETATM   34  C11 UNL     1       6.442   1.860   0.737  1.00  0.00     0.257 A 
HETATM   35  O1  UNL     1       5.836   2.886   1.153  1.00  0.00    -0.267 OA
HETATM   36  N1  UNL     1       7.800   1.844   0.752  1.00  0.00    -0.322 N 
HETATM   37  C12 UNL     1       8.517   0.771   0.318  1.00  0.00     0.046 A 
HETATM   38  H8  UNL     1       8.302   2.690   1.110  1.00  0.00     0.169 HD
HETATM   39  C13 UNL     1       9.920   0.817   0.360  1.00  0.00     0.030 A 
HETATM   40  C14 UNL     1      10.677  -0.267  -0.077  1.00  0.00     0.002 A 
HETATM   41  C15 UNL     1      10.044  -1.408  -0.561  1.00  0.00     0.001 A 
HETATM   42  C16 UNL     1       8.649  -1.475  -0.611  1.00  0.00     0.014 A 
ENDBRANCH   4  27
TORSDOF 2
