REMARK  5 active torsions:
REMARK  status: ('A' for Active; 'I' for Inactive)
REMARK       I    between atoms: C1_2  and  N1_3 
REMARK    1  A    between atoms: C1_2  and  C17_21 
REMARK       I    between atoms: N1_3  and  C2_4 
REMARK       I    between atoms: C2_4  and  N2_6 
REMARK    2  A    between atoms: C19_23  and  C39_44 
REMARK    3  A    between atoms: C20_24  and  C22_27 
REMARK    4  A    between atoms: C27_32  and  C28_33 
REMARK    5  A    between atoms: C33_38  and  C34_39 
ROOT
HETATM    1  C17 UNL     1      -0.652  -0.511   0.772  1.00  0.00     0.125 A 
HETATM    2  C18 UNL     1      -1.850  -0.554   1.492  1.00  0.00     0.050 A 
HETATM    3  C19 UNL     1      -3.094  -0.693   0.830  1.00  0.00    -0.010 A 
HETATM    4  C20 UNL     1      -3.103  -0.753  -0.583  1.00  0.00     0.004 A 
HETATM    5  C21 UNL     1      -1.861  -0.691  -1.258  1.00  0.00     0.130 A 
HETATM    6  N3  UNL     1      -0.695  -0.580  -0.579  1.00  0.00    -0.255 NA
ENDROOT
BRANCH   1   7
HETATM    7  C1  UNL     1       0.652  -0.359   1.457  1.00  0.00     0.278 C 
HETATM    8  O1  UNL     1       0.686  -0.221   2.710  1.00  0.00    -0.265 OA
HETATM    9  N1  UNL     1       1.874  -0.365   0.697  1.00  0.00    -0.273 N 
HETATM   10  C2  UNL     1       3.166  -0.063   1.250  1.00  0.00     0.330 C 
HETATM   11  H1  UNL     1       1.833  -0.603  -0.319  1.00  0.00     0.173 HD
HETATM   12  O2  UNL     1       3.292   0.202   2.477  1.00  0.00    -0.246 OA
HETATM   13  N2  UNL     1       4.325  -0.030   0.392  1.00  0.00    -0.298 N 
HETATM   14  C3  UNL     1       4.243   0.888  -0.745  1.00  0.00     0.138 C 
HETATM   15  C16 UNL     1       5.550  -0.729   0.778  1.00  0.00     0.050 C 
HETATM   16  C4  UNL     1       5.285   1.992  -0.600  1.00  0.00     0.060 C 
HETATM   17  C5  UNL     1       6.509   1.562  -1.335  1.00  0.00    -0.045 A 
HETATM   18  C6  UNL     1       6.918   2.302  -2.460  1.00  0.00     0.008 A 
HETATM   19  C10 UNL     1       7.147   0.338  -1.019  1.00  0.00    -0.017 A 
HETATM   20  C7  UNL     1       7.936   1.833  -3.287  1.00  0.00     0.001 A 
HETATM   21  C8  UNL     1       8.538   0.608  -3.018  1.00  0.00     0.001 A 
HETATM   22  C9  UNL     1       8.145  -0.134  -1.904  1.00  0.00     0.013 A 
HETATM   23  C11 UNL     1       6.855  -0.457   0.228  1.00  0.00     0.002 C 
HETATM   24  C12 UNL     1       7.981  -1.029   0.868  1.00  0.00     0.014 C 
HETATM   25  C13 UNL     1       7.847  -1.937   1.911  1.00  0.00     0.001 C 
HETATM   26  C14 UNL     1       6.587  -2.309   2.346  1.00  0.00     0.002 C 
HETATM   27  C15 UNL     1       5.457  -1.719   1.789  1.00  0.00     0.031 C 
ENDBRANCH   1   7
BRANCH   3  28
HETATM   28  C39 UNL     1      -4.321  -0.718   1.674  1.00  0.00    -0.014 C 
HETATM   29  C34 UNL     1      -5.147   0.425   1.676  1.00  0.00    -0.014 C 
HETATM   30  C35 UNL     1      -5.242   1.150   2.883  1.00  0.00     0.013 C 
HETATM   31  C36 UNL     1      -4.925   0.530   4.095  1.00  0.00     0.001 C 
HETATM   32  C37 UNL     1      -4.489  -0.795   4.098  1.00  0.00     0.001 C 
HETATM   33  C38 UNL     1      -4.200  -1.430   2.887  1.00  0.00     0.013 C 
BRANCH  29  34
HETATM   34  C33 UNL     1      -6.383   0.400   0.842  1.00  0.00    -0.014 A 
HETATM   35  C28 UNL     1      -6.385   0.369  -0.577  1.00  0.00    -0.014 A 
HETATM   36  C29 UNL     1      -7.629   0.267  -1.250  1.00  0.00     0.013 A 
HETATM   37  C30 UNL     1      -8.833   0.226  -0.556  1.00  0.00     0.001 A 
HETATM   38  C31 UNL     1      -8.832   0.259   0.830  1.00  0.00     0.001 A 
HETATM   39  C32 UNL     1      -7.627   0.331   1.520  1.00  0.00     0.013 A 
BRANCH  35  40
HETATM   40  C27 UNL     1      -5.153   0.376  -1.414  1.00  0.00    -0.014 C 
HETATM   41  C22 UNL     1      -4.342  -0.778  -1.411  1.00  0.00    -0.013 C 
HETATM   42  C23 UNL     1      -4.251  -1.505  -2.618  1.00  0.00     0.013 C 
HETATM   43  C24 UNL     1      -4.545  -0.877  -3.832  1.00  0.00     0.001 C 
HETATM   44  C25 UNL     1      -4.959   0.455  -3.836  1.00  0.00     0.001 C 
HETATM   45  C26 UNL     1      -5.251   1.091  -2.627  1.00  0.00     0.013 C 
ENDBRANCH  35  40
ENDBRANCH  29  34
ENDBRANCH   3  28
TORSDOF 5
