REMARK  3 active torsions:
REMARK  status: ('A' for Active; 'I' for Inactive)
REMARK    1  A    between atoms: O1_2  and  C2_3 
REMARK    2  A    between atoms: C7_8  and  C8_9 
REMARK       I    between atoms: C8_9  and  N1_11 
REMARK       I    between atoms: N2_16  and  C13_17 
REMARK    3  A    between atoms: C13_17  and  C14_19 
ROOT
HETATM    1  C8  UNL     1      -2.243  -0.995   1.621  1.00  0.00     0.256 C 
HETATM    2  O2  UNL     1      -2.007  -0.558   2.779  1.00  0.00    -0.267 OA
HETATM    3  N1  UNL     1      -1.189  -1.633   0.856  1.00  0.00    -0.346 N 
HETATM    4  C9  UNL     1      -1.440  -2.248  -0.457  1.00  0.00     0.132 C 
HETATM    5  C10 UNL     1      -0.771  -1.466  -1.599  1.00  0.00     0.018 C 
HETATM    6  C11 UNL     1      -1.411  -0.088  -1.814  1.00  0.00     0.013 C 
HETATM    7  C12 UNL     1       0.762  -1.393  -1.449  1.00  0.00     0.132 C 
HETATM    8  N2  UNL     1       1.210  -0.384  -0.472  1.00  0.00    -0.342 N 
HETATM    9  C13 UNL     1       1.985   0.720  -0.974  1.00  0.00     0.256 C 
HETATM   10  O3  UNL     1       1.465   1.520  -1.797  1.00  0.00    -0.267 OA
HETATM   11  C20 UNL     1       1.055  -0.534   0.996  1.00  0.00     0.101 C 
HETATM   12  C21 UNL     1       0.551   0.772   1.634  1.00  0.00     0.034 C 
HETATM   13  C22 UNL     1       0.171  -1.732   1.409  1.00  0.00     0.151 C 
ENDROOT
BRANCH   1  14
HETATM   14  C7  UNL     1      -3.605  -0.819   1.086  1.00  0.00     0.065 A 
HETATM   15  C2  UNL     1      -4.038   0.447   0.649  1.00  0.00     0.084 A 
HETATM   16  C3  UNL     1      -5.349   0.589   0.150  1.00  0.00     0.038 A 
HETATM   17  C4  UNL     1      -6.210  -0.510   0.104  1.00  0.00     0.003 A 
HETATM   18  C5  UNL     1      -5.780  -1.758   0.557  1.00  0.00     0.001 A 
HETATM   19  C6  UNL     1      -4.484  -1.912   1.053  1.00  0.00     0.020 A 
BRANCH  15  20
HETATM   20  O1  UNL     1      -3.148   1.530   0.720  1.00  0.00    -0.355 OA
HETATM   21  C1  UNL     1      -3.436   2.845   0.258  1.00  0.00     0.210 C 
ENDBRANCH  15  20
ENDBRANCH   1  14
BRANCH   9  22
HETATM   22  C14 UNL     1       3.367   0.951  -0.520  1.00  0.00     0.056 A 
HETATM   23  C15 UNL     1       3.930   2.189  -0.274  1.00  0.00     0.043 A 
HETATM   24  C16 UNL     1       5.231   1.944   0.122  1.00  0.00     0.006 A 
HETATM   25  C17 UNL     1       6.209   2.982   0.566  1.00  0.00     0.068 C 
HETATM   26  N3  UNL     1       5.483   0.621   0.131  1.00  0.00    -0.363 N 
HETATM   27  C18 UNL     1       4.356   0.007  -0.278  1.00  0.00     0.021 A 
HETATM   28  H20 UNL     1       6.384   0.161   0.393  1.00  0.00     0.165 HD
HETATM   29  C19 UNL     1       4.252  -1.473  -0.479  1.00  0.00     0.069 C 
ENDBRANCH   9  22
TORSDOF 3
