REMARK  7 active torsions:
REMARK  status: ('A' for Active; 'I' for Inactive)
REMARK    1  A    between atoms: O1_2  and  C2_3 
REMARK    2  A    between atoms: C10_11  and  C21_26 
REMARK    3  A    between atoms: C11_12  and  O2_13 
REMARK    4  A    between atoms: O2_13  and  C12_14 
REMARK    5  A    between atoms: C12_14  and  C13_15 
REMARK    6  A    between atoms: C16_19  and  C17_20 
REMARK    7  A    between atoms: C17_20  and  O4_22 
ROOT
HETATM    1  C2  UNL     1      -0.055   1.143   1.787  1.00  0.00     0.073 C 
HETATM    2  C3  UNL     1      -0.389   2.485   2.368  1.00  0.00     0.037 C 
HETATM    3  C4  UNL     1      -1.229   3.375   1.794  1.00  0.00     0.003 C 
HETATM    4  C5  UNL     1      -1.987   3.127   0.537  1.00  0.00     0.007 C 
HETATM    5  C6  UNL     1      -2.501   1.924   0.215  1.00  0.00    -0.054 C 
HETATM    6  C7  UNL     1      -2.829   1.639  -1.204  1.00  0.00     0.007 C 
HETATM    7  C8  UNL     1      -2.852   0.440  -1.828  1.00  0.00     0.001 C 
HETATM    8  C9  UNL     1      -2.691  -0.935  -1.272  1.00  0.00     0.012 C 
HETATM    9  C10 UNL     1      -1.724  -1.413  -0.449  1.00  0.00     0.003 C 
HETATM   10  C11 UNL     1      -0.564  -0.568   0.069  1.00  0.00     0.189 C 
HETATM   11  C19 UNL     1      -0.994   0.381   1.176  1.00  0.00    -0.009 C 
HETATM   12  C20 UNL     1      -2.422   0.833   1.223  1.00  0.00     0.078 C 
ENDROOT
BRANCH  10  13
HETATM   13  O2  UNL     1      -0.014   0.205  -0.988  1.00  0.00    -0.372 OA
BRANCH  13  14
HETATM   14  C12 UNL     1       0.930  -0.533  -1.741  1.00  0.00     0.209 C 
BRANCH  14  15
HETATM   15  C13 UNL     1       2.309  -0.347  -1.170  1.00  0.00    -0.016 A 
HETATM   16  C14 UNL     1       3.016  -1.428  -0.629  1.00  0.00     0.125 A 
HETATM   17  N1  UNL     1       4.259  -1.240  -0.113  1.00  0.00    -0.271 NA
HETATM   18  C15 UNL     1       4.853  -0.018  -0.098  1.00  0.00     0.134 A 
HETATM   19  C16 UNL     1       4.184   1.102  -0.619  1.00  0.00     0.055 A 
HETATM   20  C18 UNL     1       2.901   0.923  -1.158  1.00  0.00     0.030 A 
BRANCH  19  21
HETATM   21  C17 UNL     1       4.808   2.442  -0.589  1.00  0.00     0.177 C 
HETATM   22  O3  UNL     1       5.961   2.599  -0.103  1.00  0.00    -0.646 OA
BRANCH  21  23
HETATM   23  O4  UNL     1       4.125   3.545  -1.096  1.00  0.00    -0.773 OA
HETATM   24  H15 UNL     1       4.543   4.468  -1.080  1.00  0.00     0.167 HD
ENDBRANCH  21  23
ENDBRANCH  19  21
ENDBRANCH  14  15
ENDBRANCH  13  14
ENDBRANCH  10  13
BRANCH   9  25
HETATM   25  C21 UNL     1      -1.763  -2.850  -0.061  1.00  0.00     0.063 A 
HETATM   26  C22 UNL     1      -0.680  -3.710  -0.068  1.00  0.00     0.053 A 
HETATM   27  C23 UNL     1      -1.189  -4.923   0.347  1.00  0.00     0.141 A 
HETATM   28  N2  UNL     1      -2.505  -4.799   0.600  1.00  0.00    -0.185 NA
HETATM   29  N3  UNL     1      -2.849  -3.543   0.360  1.00  0.00    -0.274 N 
HETATM   30  C24 UNL     1      -4.212  -3.055   0.547  1.00  0.00     0.180 C 
ENDBRANCH   9  25
BRANCH   1  31
HETATM   31  O1  UNL     1       1.269   0.675   1.819  1.00  0.00    -0.356 OA
HETATM   32  C1  UNL     1       2.353   1.386   2.405  1.00  0.00     0.210 C 
ENDBRANCH   1  31
TORSDOF 7
