REMARK  2 active torsions:
REMARK  status: ('A' for Active; 'I' for Inactive)
REMARK    1  A    between atoms: C1_2  and  C2_3 
REMARK       I    between atoms: C1_2  and  N1_13 
REMARK       I    between atoms: N1_13  and  C12_14 
REMARK    2  A    between atoms: C12_14  and  C13_16 
ROOT
HETATM    1  C13 UNL     1      -0.451   0.530   0.220  1.00  0.00     0.040 A 
HETATM    2  C14 UNL     1      -0.430   1.925   0.386  1.00  0.00     0.017 A 
HETATM    3  C15 UNL     1      -1.399   2.729  -0.212  1.00  0.00     0.002 A 
HETATM    4  C16 UNL     1      -2.417   2.153  -0.966  1.00  0.00     0.013 A 
HETATM    5  C17 UNL     1      -2.456   0.768  -1.158  1.00  0.00    -0.017 A 
HETATM    6  C18 UNL     1      -1.452  -0.061  -0.598  1.00  0.00    -0.023 A 
HETATM    7  C19 UNL     1      -1.434  -1.540  -0.952  1.00  0.00     0.143 C 
HETATM    8  C20 UNL     1      -2.610  -2.284  -0.385  1.00  0.00     0.226 C 
HETATM    9  O3  UNL     1      -3.109  -3.241  -1.034  1.00  0.00    -0.273 OA
HETATM   10  N2  UNL     1      -3.092  -2.006   0.930  1.00  0.00    -0.326 N 
HETATM   11  C21 UNL     1      -3.994  -0.937   1.292  1.00  0.00     0.045 A 
HETATM   12  C22 UNL     1      -4.140  -0.653   2.662  1.00  0.00     0.030 A 
HETATM   13  C23 UNL     1      -5.018   0.337   3.104  1.00  0.00     0.002 A 
HETATM   14  C24 UNL     1      -5.776   1.058   2.186  1.00  0.00     0.001 A 
HETATM   15  C25 UNL     1      -5.655   0.795   0.823  1.00  0.00     0.014 A 
HETATM   16  C26 UNL     1      -4.771  -0.193   0.354  1.00  0.00     0.002 A 
HETATM   17  C27 UNL     1      -4.689  -0.368  -1.115  1.00  0.00    -0.013 A 
HETATM   18  C28 UNL     1      -5.753  -0.979  -1.796  1.00  0.00     0.013 A 
HETATM   19  C29 UNL     1      -5.741  -1.066  -3.191  1.00  0.00     0.001 A 
HETATM   20  C30 UNL     1      -4.676  -0.530  -3.918  1.00  0.00     0.001 A 
HETATM   21  C31 UNL     1      -3.615   0.091  -3.253  1.00  0.00     0.013 A 
HETATM   22  C32 UNL     1      -3.615   0.177  -1.854  1.00  0.00    -0.014 A 
HETATM   23  H14 UNL     1      -2.732  -2.631   1.686  1.00  0.00     0.169 HD
ENDROOT
BRANCH   1  24
HETATM   24  C12 UNL     1       0.551  -0.273   0.956  1.00  0.00     0.259 C 
HETATM   25  N1  UNL     1       1.935   0.117   0.947  1.00  0.00    -0.289 N 
HETATM   26  C1  UNL     1       2.935  -0.488   1.786  1.00  0.00     0.258 C 
HETATM   27  H8  UNL     1       2.217   0.897   0.313  1.00  0.00     0.172 HD
HETATM   28  O1  UNL     1       2.585  -1.182   2.779  1.00  0.00    -0.267 OA
HETATM   29  O2  UNL     1       0.178  -1.286   1.607  1.00  0.00    -0.267 OA
BRANCH  26  30
HETATM   30  C2  UNL     1       4.379  -0.276   1.523  1.00  0.00     0.033 A 
HETATM   31  C3  UNL     1       5.309  -0.403   2.570  1.00  0.00     0.018 A 
HETATM   32  C4  UNL     1       6.673  -0.209   2.339  1.00  0.00     0.013 A 
HETATM   33  C5  UNL     1       7.135   0.105   1.055  1.00  0.00    -0.026 A 
HETATM   34  C6  UNL     1       8.504   0.301   0.813  1.00  0.00     0.012 A 
HETATM   35  C10 UNL     1       6.211   0.222  -0.011  1.00  0.00    -0.025 A 
HETATM   36  C7  UNL     1       8.951   0.610  -0.474  1.00  0.00     0.001 A 
HETATM   37  C8  UNL     1       8.040   0.723  -1.528  1.00  0.00     0.001 A 
HETATM   38  C9  UNL     1       6.675   0.529  -1.300  1.00  0.00     0.012 A 
HETATM   39  C11 UNL     1       4.842   0.028   0.229  1.00  0.00     0.029 A 
ENDBRANCH  26  30
ENDBRANCH   1  24
TORSDOF 2
