REMARK  3 active torsions:
REMARK  status: ('A' for Active; 'I' for Inactive)
REMARK    1  A    between atoms: C5_5  and  C6_6 
REMARK    2  A    between atoms: C11_11  and  C12_12 
REMARK    3  A    between atoms: C19_22  and  C20_23 
REMARK       I    between atoms: C20_23  and  N2_25 
ROOT
HETATM    1  C6  UNL     1      -0.275  -1.916   0.669  1.00  0.00    -0.019 A 
HETATM    2  C7  UNL     1       0.248  -3.035   1.337  1.00  0.00     0.013 A 
HETATM    3  C8  UNL     1      -0.463  -3.637   2.377  1.00  0.00     0.001 A 
HETATM    4  C9  UNL     1      -1.703  -3.128   2.762  1.00  0.00     0.001 A 
HETATM    5  C10 UNL     1      -2.241  -2.021   2.104  1.00  0.00     0.009 A 
HETATM    6  C11 UNL     1      -1.551  -1.413   1.039  1.00  0.00    -0.034 A 
ENDROOT
BRANCH   1   7
HETATM    7  C5  UNL     1       0.532  -1.311  -0.407  1.00  0.00    -0.024 A 
HETATM    8  C4  UNL     1       0.627  -1.945  -1.650  1.00  0.00     0.013 A 
HETATM    9  C3  UNL     1       1.383  -1.375  -2.675  1.00  0.00     0.009 A 
HETATM   10  C2  UNL     1       2.078  -0.173  -2.466  1.00  0.00    -0.046 A 
HETATM   11  C1  UNL     1       2.886   0.418  -3.592  1.00  0.00     0.049 C 
HETATM   12  C19 UNL     1       2.005   0.457  -1.201  1.00  0.00     0.038 A 
HETATM   13  C18 UNL     1       1.240  -0.127  -0.179  1.00  0.00     0.030 A 
BRANCH  12  14
HETATM   14  C20 UNL     1       2.690   1.740  -0.935  1.00  0.00     0.253 C 
HETATM   15  O3  UNL     1       2.390   2.743  -1.638  1.00  0.00    -0.267 OA
HETATM   16  N2  UNL     1       3.683   1.863   0.106  1.00  0.00    -0.357 N 
HETATM   17  C21 UNL     1       4.108   3.200   0.533  1.00  0.00     0.152 C 
HETATM   18  C22 UNL     1       4.331   0.669   0.661  1.00  0.00     0.152 C 
ENDBRANCH  12  14
ENDBRANCH   1   7
BRANCH   6  19
HETATM   19  C12 UNL     1      -2.195  -0.213   0.370  1.00  0.00     0.032 A 
HETATM   20  C13 UNL     1      -2.377  -0.317  -1.146  1.00  0.00     0.045 A 
HETATM   21  C14 UNL     1      -3.582  -0.511  -0.241  1.00  0.00     0.101 A 
HETATM   22  N1  UNL     1      -4.556   0.563  -0.414  1.00  0.00    -0.353 N 
HETATM   23  C15 UNL     1      -4.917   1.434   0.655  1.00  0.00     0.241 C 
HETATM   24  H13 UNL     1      -5.170   0.528  -1.258  1.00  0.00     0.163 HD
HETATM   25  O1  UNL     1      -6.106   1.833   0.774  1.00  0.00    -0.271 OA
HETATM   26  C16 UNL     1      -3.863   1.925   1.576  1.00  0.00     0.270 C 
HETATM   27  O2  UNL     1      -2.725   2.206   0.790  1.00  0.00    -0.381 OA
HETATM   28  C17 UNL     1      -1.760   1.183   0.902  1.00  0.00     0.184 C 
ENDBRANCH   6  19
TORSDOF 3
