REMARK  2 active torsions:
REMARK  status: ('A' for Active; 'I' for Inactive)
REMARK    1  A    between atoms: C1_2  and  C2_3 
REMARK    2  A    between atoms: C1_2  and  C17_21 
ROOT
HETATM    1  C2  UNL     1       0.777   0.515   0.531  1.00  0.00     0.054 A 
HETATM    2  C3  UNL     1      -0.456   1.092   0.192  1.00  0.00     0.031 A 
HETATM    3  C4  UNL     1      -1.665   0.480   0.564  1.00  0.00    -0.018 A 
HETATM    4  C5  UNL     1      -1.635  -0.718   1.314  1.00  0.00    -0.044 A 
HETATM    5  C6  UNL     1      -0.400  -1.287   1.660  1.00  0.00     0.051 A 
HETATM    6  C7  UNL     1       0.796  -0.675   1.280  1.00  0.00     0.131 A 
HETATM    7  F1  UNL     1       1.970  -1.228   1.677  1.00  0.00    -0.205 F 
HETATM    8  C8  UNL     1      -2.919  -1.376   1.762  1.00  0.00     0.046 C 
HETATM    9  C9  UNL     1      -3.685  -2.036   0.601  1.00  0.00     0.089 C 
HETATM   10  C10 UNL     1      -3.759  -1.205  -0.698  1.00  0.00     0.272 C 
HETATM   11  F2  UNL     1      -2.579  -1.359  -1.410  1.00  0.00    -0.201 F 
HETATM   12  F3  UNL     1      -4.773  -1.726  -1.487  1.00  0.00    -0.201 F 
HETATM   13  C11 UNL     1      -3.989   0.275  -0.427  1.00  0.00     0.024 A 
HETATM   14  C12 UNL     1      -5.227   0.872  -0.738  1.00  0.00     0.014 A 
HETATM   15  C13 UNL     1      -5.431   2.237  -0.529  1.00  0.00     0.001 A 
HETATM   16  C14 UNL     1      -4.411   3.025  -0.001  1.00  0.00     0.001 A 
HETATM   17  C15 UNL     1      -3.184   2.452   0.333  1.00  0.00     0.013 A 
HETATM   18  C16 UNL     1      -2.960   1.077   0.136  1.00  0.00    -0.013 A 
ENDROOT
BRANCH   1  19
HETATM   19  C1  UNL     1       2.033   1.184   0.120  1.00  0.00     0.195 C 
HETATM   20  O1  UNL     1       2.112   2.438   0.225  1.00  0.00    -0.287 OA
BRANCH  19  21
HETATM   21  C17 UNL     1       3.188   0.431  -0.427  1.00  0.00     0.018 A 
HETATM   22  C18 UNL     1       2.997  -0.795  -1.122  1.00  0.00     0.018 A 
HETATM   23  C19 UNL     1       4.095  -1.497  -1.652  1.00  0.00     0.040 A 
HETATM   24  C20 UNL     1       5.361  -0.948  -1.482  1.00  0.00     0.105 A 
HETATM   25  C21 UNL     1       5.553   0.227  -0.832  1.00  0.00     0.105 A 
HETATM   26  O3  UNL     1       6.578  -1.443  -1.909  1.00  0.00    -0.323 OA
HETATM   27  C22 UNL     1       4.496   0.954  -0.292  1.00  0.00     0.055 A 
HETATM   28  O2  UNL     1       6.901   0.529  -0.817  1.00  0.00    -0.323 OA
HETATM   29  C23 UNL     1       7.599  -0.521  -1.501  1.00  0.00     0.352 A 
ENDBRANCH  19  21
ENDBRANCH   1  19
TORSDOF 2
