REMARK  3 active torsions:
REMARK  status: ('A' for Active; 'I' for Inactive)
REMARK    1  A    between atoms: C7_9  and  C8_10 
REMARK    2  A    between atoms: C12_14  and  C13_15 
REMARK    3  A    between atoms: C17_19  and  O2_20 
ROOT
HETATM    1  O1  UNL     1       0.610   1.690  -2.853  1.00  0.00    -0.268 OA
HETATM    2  C1  UNL     1       0.003   0.824  -2.168  1.00  0.00     0.252 C 
HETATM    3  N1  UNL     1      -1.184   0.209  -2.760  1.00  0.00    -0.356 N 
HETATM    4  C2  UNL     1      -2.615   0.507  -2.440  1.00  0.00     0.128 C 
HETATM    5  C3  UNL     1      -3.215  -0.391  -1.272  1.00  0.00     0.008 C 
HETATM    6  C4  UNL     1      -2.072  -1.035  -0.550  1.00  0.00     0.016 C 
HETATM    7  C5  UNL     1      -1.582   0.190   0.208  1.00  0.00     0.023 C 
HETATM    8  C6  UNL     1      -2.788   0.548   1.035  1.00  0.00     0.014 C 
HETATM    9  C7  UNL     1      -3.892   0.417  -0.086  1.00  0.00    -0.009 C 
HETATM   10  C10 UNL     1       0.639   0.398  -0.842  1.00  0.00     0.042 A 
HETATM   11  C11 UNL     1       2.041   0.337  -0.756  1.00  0.00     0.030 A 
HETATM   12  C12 UNL     1       2.685   0.002   0.451  1.00  0.00    -0.022 A 
HETATM   13  C19 UNL     1       1.912  -0.265   1.595  1.00  0.00     0.055 A 
HETATM   14  C20 UNL     1       0.519  -0.196   1.547  1.00  0.00     0.124 A 
HETATM   15  F1  UNL     1      -0.208  -0.462   2.661  1.00  0.00    -0.205 F 
HETATM   16  C21 UNL     1      -0.114   0.151   0.351  1.00  0.00     0.000 A 
HETATM   17  H1  UNL     1      -1.024  -0.248  -3.686  1.00  0.00     0.162 HD
ENDROOT
BRANCH  12  18
HETATM   18  C13 UNL     1       4.167  -0.067   0.516  1.00  0.00    -0.023 A 
HETATM   19  C14 UNL     1       4.957   0.904  -0.127  1.00  0.00     0.012 A 
HETATM   20  C15 UNL     1       6.352   0.838  -0.064  1.00  0.00     0.004 A 
HETATM   21  C16 UNL     1       6.974  -0.197   0.638  1.00  0.00     0.036 A 
HETATM   22  C17 UNL     1       6.204  -1.170   1.281  1.00  0.00     0.066 A 
HETATM   23  C18 UNL     1       4.805  -1.106   1.221  1.00  0.00     0.048 A 
BRANCH  22  24
HETATM   24  O2  UNL     1       6.838  -2.198   1.975  1.00  0.00    -0.361 OA
HETATM   25  H20 UNL     1       6.310  -2.920   2.452  1.00  0.00     0.217 HD
ENDBRANCH  22  24
ENDBRANCH  12  18
BRANCH   9  26
HETATM   26  C8  UNL     1      -5.157  -0.296   0.430  1.00  0.00     0.000 C 
HETATM   27  C9  UNL     1      -5.890   0.528   1.488  1.00  0.00     0.005 C 
ENDBRANCH   9  26
TORSDOF 3
