REMARK  1 active torsions:
REMARK  status: ('A' for Active; 'I' for Inactive)
REMARK    1  A    between atoms: C5_5  and  C6_6 
REMARK       I    between atoms: C6_6  and  N1_8 
ROOT
HETATM    1  C1  UNL     1       2.892   0.031  -3.239  1.00  0.00     0.049 C 
HETATM    2  C2  UNL     1       1.797  -0.205  -2.230  1.00  0.00    -0.048 A 
HETATM    3  C3  UNL     1       0.474  -0.224  -2.690  1.00  0.00     0.009 A 
HETATM    4  C4  UNL     1      -0.584  -0.393  -1.805  1.00  0.00     0.020 A 
HETATM    5  C5  UNL     1      -0.352  -0.505  -0.431  1.00  0.00     0.067 A 
HETATM    6  C15 UNL     1       0.970  -0.480   0.062  1.00  0.00     0.106 A 
HETATM    7  C16 UNL     1       2.063  -0.411  -0.848  1.00  0.00     0.016 A 
HETATM    8  C17 UNL     1       3.466  -0.595  -0.369  1.00  0.00    -0.016 A 
HETATM    9  C18 UNL     1       4.284  -1.571  -0.968  1.00  0.00     0.013 A 
HETATM   10  C19 UNL     1       5.609  -1.738  -0.561  1.00  0.00     0.001 A 
HETATM   11  C20 UNL     1       6.131  -0.949   0.463  1.00  0.00     0.001 A 
HETATM   12  C21 UNL     1       5.322  -0.004   1.098  1.00  0.00     0.008 A 
HETATM   13  C22 UNL     1       3.989   0.177   0.693  1.00  0.00    -0.038 A 
HETATM   14  C23 UNL     1       3.092   1.091   1.470  1.00  0.00     0.151 C 
HETATM   15  C24 UNL     1       2.084   0.238   2.171  1.00  0.00     0.268 C 
HETATM   16  O2  UNL     1       2.096   0.169   3.428  1.00  0.00    -0.265 OA
HETATM   17  O3  UNL     1       1.147  -0.517   1.457  1.00  0.00    -0.277 OA
ENDROOT
BRANCH   5  18
HETATM   18  C6  UNL     1      -1.504  -0.649   0.487  1.00  0.00     0.261 C 
HETATM   19  O1  UNL     1      -1.427  -1.451   1.457  1.00  0.00    -0.267 OA
HETATM   20  N1  UNL     1      -2.698   0.131   0.299  1.00  0.00    -0.313 N 
HETATM   21  C7  UNL     1      -2.692   1.538  -0.116  1.00  0.00     0.137 A 
HETATM   22  C14 UNL     1      -3.985  -0.176   0.813  1.00  0.00     0.044 A 
HETATM   23  C8  UNL     1      -4.103   2.089   0.198  1.00  0.00     0.061 A 
HETATM   24  C9  UNL     1      -4.813   0.913   0.768  1.00  0.00    -0.027 A 
HETATM   25  C10 UNL     1      -6.138   0.839   1.201  1.00  0.00     0.051 A 
HETATM   26  C11 UNL     1      -6.618  -0.390   1.682  1.00  0.00     0.117 A 
HETATM   27  F1  UNL     1      -7.901  -0.494   2.108  1.00  0.00    -0.206 F 
HETATM   28  C12 UNL     1      -5.774  -1.516   1.713  1.00  0.00     0.044 A 
HETATM   29  C13 UNL     1      -4.445  -1.417   1.269  1.00  0.00     0.033 A 
ENDBRANCH   5  18
TORSDOF 1
