REMARK  1 active torsions:
REMARK  status: ('A' for Active; 'I' for Inactive)
REMARK    1  A    between atoms: C10_14  and  C11_15 
ROOT
HETATM    1  C1  UNL     1       0.636  -3.269   0.337  1.00  0.00     0.014 C 
HETATM    2  C2  UNL     1       1.214  -1.923  -0.133  1.00  0.00     0.029 C 
HETATM    3  C3  UNL     1       2.658  -2.109  -0.654  1.00  0.00     0.181 C 
HETATM    4  O1  UNL     1       3.507  -1.026  -0.270  1.00  0.00    -0.349 OA
HETATM    5  C4  UNL     1       3.251   0.357  -0.329  1.00  0.00     0.090 A 
HETATM    6  C5  UNL     1       4.127   1.172   0.403  1.00  0.00     0.038 A 
HETATM    7  C6  UNL     1       3.949   2.554   0.459  1.00  0.00     0.003 A 
HETATM    8  C7  UNL     1       2.891   3.146  -0.224  1.00  0.00     0.002 A 
HETATM    9  C8  UNL     1       2.018   2.361  -0.975  1.00  0.00     0.026 A 
HETATM   10  C9  UNL     1       2.185   0.966  -1.049  1.00  0.00     0.093 A 
HETATM   11  S1  UNL     1       1.095   0.057  -2.101  1.00  0.00     0.186 S 
HETATM   12  O2  UNL     1       1.882  -0.483  -3.262  1.00  0.00    -0.222 OA
HETATM   13  O3  UNL     1       0.029   0.966  -2.649  1.00  0.00    -0.222 OA
HETATM   14  C10 UNL     1       0.297  -1.291  -1.214  1.00  0.00     0.152 C 
ENDROOT
BRANCH  14  15
HETATM   15  C11 UNL     1      -1.020  -0.823  -0.618  1.00  0.00    -0.035 A 
HETATM   16  C12 UNL     1      -1.056   0.222   0.324  1.00  0.00     0.021 A 
HETATM   17  C13 UNL     1      -2.274   0.645   0.873  1.00  0.00    -0.022 A 
HETATM   18  C14 UNL     1      -2.308   1.691   1.809  1.00  0.00     0.012 A 
HETATM   19  C18 UNL     1      -3.480   0.015   0.481  1.00  0.00     0.013 A 
HETATM   20  C15 UNL     1      -3.526   2.108   2.353  1.00  0.00     0.001 A 
HETATM   21  C16 UNL     1      -4.716   1.487   1.969  1.00  0.00     0.001 A 
HETATM   22  C17 UNL     1      -4.698   0.445   1.037  1.00  0.00     0.015 A 
HETATM   23  C19 UNL     1      -3.442  -1.030  -0.458  1.00  0.00     0.128 A 
HETATM   24  F1  UNL     1      -4.582  -1.653  -0.851  1.00  0.00    -0.205 F 
HETATM   25  C20 UNL     1      -2.222  -1.442  -1.000  1.00  0.00     0.051 A 
ENDBRANCH  14  15
TORSDOF 1
