REMARK  2 active torsions:
REMARK  status: ('A' for Active; 'I' for Inactive)
REMARK    1  A    between atoms: N1_1  and  C1_2 
REMARK    2  A    between atoms: C4_6  and  C5_7 
REMARK       I    between atoms: N3_11  and  C9_12 
REMARK       I    between atoms: C9_12  and  N4_14 
ROOT
HETATM    1  C5  UNL     1       2.192  -0.259   1.505  1.00  0.00     0.141 C 
HETATM    2  C6  UNL     1       2.350  -1.572   2.272  1.00  0.00     0.033 C 
HETATM    3  C7  UNL     1       0.985  -1.839   2.898  1.00  0.00     0.022 C 
HETATM    4  C8  UNL     1      -0.018  -1.077   2.042  1.00  0.00     0.128 C 
HETATM    5  N3  UNL     1       0.760  -0.104   1.295  1.00  0.00    -0.323 N 
HETATM    6  C9  UNL     1       0.194   1.103   0.755  1.00  0.00     0.327 C 
HETATM    7  O1  UNL     1       0.607   2.214   1.184  1.00  0.00    -0.247 OA
HETATM    8  N4  UNL     1      -0.777   1.062  -0.310  1.00  0.00    -0.283 N 
HETATM    9  C10 UNL     1      -1.078   2.268  -1.092  1.00  0.00     0.135 C 
HETATM   10  C11 UNL     1      -2.300   3.005  -0.537  1.00  0.00     0.021 C 
HETATM   11  C12 UNL     1      -3.575   2.149  -0.580  1.00  0.00     0.007 C 
HETATM   12  C13 UNL     1      -3.757   1.360   0.727  1.00  0.00    -0.005 A 
HETATM   13  C14 UNL     1      -4.721   0.189   0.602  1.00  0.00     0.015 A 
HETATM   14  C15 UNL     1      -3.237  -0.074   0.847  1.00  0.00     0.027 A 
HETATM   15  C16 UNL     1      -2.510  -0.705  -0.316  1.00  0.00    -0.007 A 
HETATM   16  C17 UNL     1      -2.961  -1.931  -0.829  1.00  0.00     0.013 A 
HETATM   17  C18 UNL     1      -2.237  -2.584  -1.827  1.00  0.00     0.020 A 
HETATM   18  C19 UNL     1      -1.050  -2.019  -2.291  1.00  0.00     0.119 A 
HETATM   19  N5  UNL     1      -0.608  -0.845  -1.770  1.00  0.00    -0.242 NA
HETATM   20  C20 UNL     1      -1.289  -0.186  -0.793  1.00  0.00     0.140 A 
ENDROOT
BRANCH   1  21
HETATM   21  C4  UNL     1       2.925  -0.292   0.187  1.00  0.00     0.059 A 
HETATM   22  N2  UNL     1       2.417  -1.013  -0.851  1.00  0.00    -0.263 NA
HETATM   23  C3  UNL     1       3.046  -1.086  -2.053  1.00  0.00     0.119 A 
HETATM   24  C2  UNL     1       4.255  -0.417  -2.251  1.00  0.00     0.048 A 
HETATM   25  C1  UNL     1       4.812   0.323  -1.201  1.00  0.00     0.029 A 
HETATM   26  C21 UNL     1       4.144   0.383   0.029  1.00  0.00     0.058 A 
BRANCH  25  27
HETATM   27  N1  UNL     1       6.052   1.011  -1.382  1.00  0.00    -0.399 N 
HETATM   28  H1  UNL     1       6.475   1.565  -0.604  1.00  0.00     0.156 HD
HETATM   29  H2  UNL     1       6.557   0.971  -2.296  1.00  0.00     0.156 HD
ENDBRANCH  25  27
ENDBRANCH   1  21
TORSDOF 2
