REMARK  2 active torsions:
REMARK  status: ('A' for Active; 'I' for Inactive)
REMARK       I    between atoms: C1_2  and  N1_3 
REMARK    1  A    between atoms: C1_2  and  C23_27 
REMARK       I    between atoms: N1_3  and  C2_4 
REMARK    2  A    between atoms: C2_4  and  C3_6 
ROOT
HETATM    1  O1  UNL     1      -1.546   2.726  -3.567  1.00  0.00    -0.267 OA
HETATM    2  C1  UNL     1      -1.612   2.050  -2.505  1.00  0.00     0.258 C 
HETATM    3  N1  UNL     1      -0.424   1.444  -1.959  1.00  0.00    -0.289 N 
HETATM    4  C2  UNL     1       0.866   1.492  -2.604  1.00  0.00     0.258 C 
HETATM    5  O2  UNL     1       1.007   2.180  -3.654  1.00  0.00    -0.267 OA
HETATM    6  H1  UNL     1      -0.514   0.969  -1.037  1.00  0.00     0.172 HD
ENDROOT
BRANCH   4   7
HETATM    7  C3  UNL     1       2.036   0.718  -2.093  1.00  0.00     0.033 A 
HETATM    8  C4  UNL     1       3.140   0.499  -2.940  1.00  0.00     0.018 A 
HETATM    9  C5  UNL     1       4.235  -0.261  -2.517  1.00  0.00     0.014 A 
HETATM   10  C6  UNL     1       4.232  -0.857  -1.250  1.00  0.00    -0.011 A 
HETATM   11  C7  UNL     1       3.137  -0.645  -0.393  1.00  0.00     0.022 A 
HETATM   12  C22 UNL     1       5.308  -1.797  -0.858  1.00  0.00    -0.014 A 
HETATM   13  C8  UNL     1       2.070   0.171  -0.793  1.00  0.00     0.033 A 
HETATM   14  C9  UNL     1       3.086  -1.338   0.904  1.00  0.00     0.164 C 
HETATM   15  O3  UNL     1       2.743  -2.549   0.943  1.00  0.00    -0.292 OA
HETATM   16  C10 UNL     1       3.613  -0.676   2.142  1.00  0.00     0.123 C 
HETATM   17  C11 UNL     1       4.910   0.082   1.922  1.00  0.00    -0.040 A 
HETATM   18  C12 UNL     1       5.088   1.275   2.654  1.00  0.00     0.008 A 
HETATM   19  C16 UNL     1       6.005  -0.421   1.163  1.00  0.00    -0.018 A 
HETATM   20  C13 UNL     1       6.299   1.968   2.622  1.00  0.00     0.001 A 
HETATM   21  C14 UNL     1       7.351   1.493   1.848  1.00  0.00     0.001 A 
HETATM   22  C15 UNL     1       7.204   0.314   1.118  1.00  0.00     0.013 A 
HETATM   23  C17 UNL     1       5.981  -1.689   0.389  1.00  0.00    -0.014 A 
HETATM   24  C18 UNL     1       6.833  -2.730   0.798  1.00  0.00     0.013 A 
HETATM   25  C19 UNL     1       7.034  -3.844  -0.017  1.00  0.00     0.001 A 
HETATM   26  C20 UNL     1       6.424  -3.917  -1.266  1.00  0.00     0.001 A 
HETATM   27  C21 UNL     1       5.559  -2.908  -1.679  1.00  0.00     0.013 A 
ENDBRANCH   4   7
BRANCH   2  28
HETATM   28  C23 UNL     1      -2.917   1.924  -1.814  1.00  0.00     0.033 A 
HETATM   29  C24 UNL     1      -3.850   2.947  -1.910  1.00  0.00     0.018 A 
HETATM   30  C25 UNL     1      -5.067   2.862  -1.246  1.00  0.00     0.014 A 
HETATM   31  C26 UNL     1      -5.402   1.742  -0.441  1.00  0.00    -0.014 A 
HETATM   32  C27 UNL     1      -4.489   0.647  -0.395  1.00  0.00    -0.013 A 
HETATM   33  C40 UNL     1      -6.618   1.695   0.305  1.00  0.00    -0.014 A 
HETATM   34  C28 UNL     1      -3.251   0.772  -1.088  1.00  0.00     0.030 A 
HETATM   35  C29 UNL     1      -4.837  -0.536   0.325  1.00  0.00    -0.014 A 
HETATM   36  C30 UNL     1      -3.977  -1.669   0.367  1.00  0.00     0.013 A 
HETATM   37  C34 UNL     1      -6.084  -0.608   1.021  1.00  0.00    -0.014 A 
HETATM   38  C31 UNL     1      -4.335  -2.825   1.046  1.00  0.00     0.001 A 
HETATM   39  C32 UNL     1      -5.554  -2.907   1.695  1.00  0.00     0.001 A 
HETATM   40  C33 UNL     1      -6.420  -1.822   1.683  1.00  0.00     0.013 A 
HETATM   41  C35 UNL     1      -6.956   0.519   1.042  1.00  0.00    -0.014 A 
HETATM   42  C36 UNL     1      -8.161   0.521   1.801  1.00  0.00     0.013 A 
HETATM   43  C37 UNL     1      -9.011   1.620   1.814  1.00  0.00     0.001 A 
HETATM   44  C38 UNL     1      -8.686   2.758   1.098  1.00  0.00     0.001 A 
HETATM   45  C39 UNL     1      -7.506   2.806   0.366  1.00  0.00     0.013 A 
ENDBRANCH   2  28
TORSDOF 2
