REMARK  4 active torsions:
REMARK  status: ('A' for Active; 'I' for Inactive)
REMARK    1  A    between atoms: O1_2  and  C2_3 
REMARK    2  A    between atoms: C2_3  and  C5_6 
REMARK       I    between atoms: C5_6  and  N1_8 
REMARK    3  A    between atoms: N1_8  and  C6_9 
REMARK    4  A    between atoms: N2_14  and  C10_15 
ROOT
HETATM    1  C10 UNL     1       2.995  -1.304   0.917  1.00  0.00     0.127 A 
HETATM    2  C11 UNL     1       4.211  -2.016   0.919  1.00  0.00     0.050 A 
HETATM    3  C12 UNL     1       5.349  -1.438   1.485  1.00  0.00     0.007 A 
HETATM    4  C13 UNL     1       5.280  -0.163   2.045  1.00  0.00     0.043 A 
HETATM    5  C14 UNL     1       4.062   0.521   2.031  1.00  0.00     0.139 A 
HETATM    6  C15 UNL     1       3.958   1.836   2.601  1.00  0.00     0.119 C 
HETATM    7  N3  UNL     1       3.874   2.895   3.060  1.00  0.00    -0.190 NA
HETATM    8  N4  UNL     1       2.965  -0.059   1.475  1.00  0.00    -0.221 NA
ENDROOT
BRANCH   1   9
HETATM    9  N2  UNL     1       1.790  -1.859   0.333  1.00  0.00    -0.362 N 
HETATM   10  C9  UNL     1       1.904  -2.870  -0.741  1.00  0.00     0.150 C 
HETATM   11  C8  UNL     1       0.582  -3.255  -1.474  1.00  0.00     0.187 C 
HETATM   12  O3  UNL     1      -0.385  -2.246  -1.753  1.00  0.00    -0.387 OA
HETATM   13  C7  UNL     1       0.148  -0.942  -1.849  1.00  0.00     0.194 C 
HETATM   14  C6  UNL     1       0.100  -0.253  -0.472  1.00  0.00     0.126 C 
HETATM   15  C16 UNL     1       0.498  -1.234   0.645  1.00  0.00     0.151 C 
BRANCH  14  16
HETATM   16  N1  UNL     1      -1.243   0.281  -0.216  1.00  0.00    -0.350 N 
HETATM   17  C5  UNL     1      -1.721   1.485  -0.839  1.00  0.00     0.252 C 
HETATM   18  O2  UNL     1      -0.946   2.155  -1.577  1.00  0.00    -0.270 OA
HETATM   19  H10 UNL     1      -1.863  -0.203   0.473  1.00  0.00     0.163 HD
BRANCH  17  20
HETATM   20  C2  UNL     1      -3.128   1.979  -0.547  1.00  0.00     0.133 C 
HETATM   21  C3  UNL     1      -3.561   2.992  -1.633  1.00  0.00     0.056 C 
HETATM   22  C4  UNL     1      -3.082   2.672   0.838  1.00  0.00     0.056 C 
BRANCH  20  23
HETATM   23  O1  UNL     1      -3.976   0.830  -0.588  1.00  0.00    -0.376 OA
HETATM   24  C1  UNL     1      -5.238   1.012   0.024  1.00  0.00     0.203 C 
ENDBRANCH  20  23
ENDBRANCH  17  20
ENDBRANCH  14  16
ENDBRANCH   1   9
TORSDOF 4
