REMARK  6 active torsions:
REMARK  status: ('A' for Active; 'I' for Inactive)
REMARK       I    between atoms: C1_2  and  N1_3 
REMARK    1  A    between atoms: C1_2  and  C26_31 
REMARK       I    between atoms: N1_3  and  C2_4 
REMARK    2  A    between atoms: C2_4  and  C3_6 
REMARK    3  A    between atoms: C5_8  and  C25_30 
REMARK    4  A    between atoms: C6_9  and  C8_13 
REMARK    5  A    between atoms: C13_18  and  C14_19 
REMARK    6  A    between atoms: C19_24  and  C20_25 
ROOT
HETATM    1  C3  UNL     1      -0.412   0.958   0.099  1.00  0.00     0.104 A 
HETATM    2  C4  UNL     1      -1.572   1.693  -0.186  1.00  0.00     0.048 A 
HETATM    3  C5  UNL     1      -2.687   1.058  -0.743  1.00  0.00    -0.006 A 
HETATM    4  C6  UNL     1      -2.630  -0.321  -1.026  1.00  0.00     0.054 A 
HETATM    5  C7  UNL     1      -1.454  -1.028  -0.716  1.00  0.00     0.258 A 
HETATM    6  O3  UNL     1      -1.381  -2.267  -0.938  1.00  0.00    -0.267 OA
HETATM    7  N2  UNL     1      -0.390  -0.383  -0.160  1.00  0.00    -0.318 N 
HETATM    8  H3  UNL     1       0.450  -0.951   0.093  1.00  0.00     0.169 HD
ENDROOT
BRANCH   1   9
HETATM    9  C2  UNL     1       0.764   1.640   0.693  1.00  0.00     0.275 C 
HETATM   10  N1  UNL     1       2.091   1.113   0.515  1.00  0.00    -0.288 N 
HETATM   11  C1  UNL     1       3.251   1.622   1.201  1.00  0.00     0.259 C 
HETATM   12  H1  UNL     1       2.227   0.355  -0.189  1.00  0.00     0.172 HD
HETATM   13  O1  UNL     1       3.133   2.572   2.023  1.00  0.00    -0.267 OA
HETATM   14  O2  UNL     1       0.591   2.712   1.336  1.00  0.00    -0.266 OA
BRANCH  11  15
HETATM   15  C26 UNL     1       4.590   1.033   0.958  1.00  0.00     0.044 C 
HETATM   16  C27 UNL     1       5.704   1.587   1.447  1.00  0.00     0.025 C 
HETATM   17  C28 UNL     1       6.989   0.925   1.163  1.00  0.00    -0.053 C 
HETATM   18  C29 UNL     1       7.564   1.063  -0.050  1.00  0.00     0.007 C 
HETATM   19  C40 UNL     1       7.268  -0.315   1.973  1.00  0.00     0.078 C 
HETATM   20  C30 UNL     1       6.847   1.666  -1.205  1.00  0.00     0.001 C 
HETATM   21  C31 UNL     1       5.713   1.133  -1.706  1.00  0.00     0.001 C 
HETATM   22  C32 UNL     1       5.111  -0.103  -1.148  1.00  0.00     0.013 C 
HETATM   23  C33 UNL     1       4.747  -0.196   0.145  1.00  0.00    -0.010 C 
HETATM   24  C34 UNL     1       5.133  -1.425   0.872  1.00  0.00    -0.018 A 
HETATM   25  C35 UNL     1       4.340  -2.570   0.704  1.00  0.00     0.013 A 
HETATM   26  C39 UNL     1       6.308  -1.485   1.698  1.00  0.00    -0.043 A 
HETATM   27  C36 UNL     1       4.669  -3.761   1.351  1.00  0.00     0.001 A 
HETATM   28  C37 UNL     1       5.797  -3.824   2.168  1.00  0.00     0.001 A 
HETATM   29  C38 UNL     1       6.606  -2.699   2.342  1.00  0.00     0.008 A 
ENDBRANCH  11  15
ENDBRANCH   1   9
BRANCH   3  30
HETATM   30  C25 UNL     1      -3.893   1.864  -1.042  1.00  0.00    -0.014 A 
HETATM   31  C20 UNL     1      -5.102   1.670  -0.337  1.00  0.00    -0.014 A 
HETATM   32  C21 UNL     1      -6.202   2.500  -0.611  1.00  0.00     0.013 A 
HETATM   33  C22 UNL     1      -6.109   3.500  -1.581  1.00  0.00     0.001 A 
HETATM   34  C23 UNL     1      -4.916   3.690  -2.279  1.00  0.00     0.001 A 
HETATM   35  C24 UNL     1      -3.811   2.880  -2.009  1.00  0.00     0.013 A 
BRANCH  31  36
HETATM   36  C19 UNL     1      -5.227   0.638   0.717  1.00  0.00    -0.014 A 
HETATM   37  C14 UNL     1      -5.182  -0.741   0.409  1.00  0.00    -0.014 A 
HETATM   38  C15 UNL     1      -5.352  -1.685   1.435  1.00  0.00     0.013 A 
HETATM   39  C16 UNL     1      -5.548  -1.269   2.753  1.00  0.00     0.001 A 
HETATM   40  C17 UNL     1      -5.589   0.092   3.058  1.00  0.00     0.001 A 
HETATM   41  C18 UNL     1      -5.436   1.042   2.046  1.00  0.00     0.013 A 
BRANCH  37  42
HETATM   42  C13 UNL     1      -4.993  -1.216  -0.980  1.00  0.00    -0.014 A 
HETATM   43  C8  UNL     1      -3.774  -1.017  -1.667  1.00  0.00    -0.009 A 
HETATM   44  C9  UNL     1      -3.629  -1.509  -2.974  1.00  0.00     0.013 A 
HETATM   45  C10 UNL     1      -4.681  -2.185  -3.595  1.00  0.00     0.001 A 
HETATM   46  C11 UNL     1      -5.884  -2.385  -2.916  1.00  0.00     0.001 A 
HETATM   47  C12 UNL     1      -6.039  -1.907  -1.612  1.00  0.00     0.013 A 
ENDBRANCH  37  42
ENDBRANCH  31  36
ENDBRANCH   3  30
TORSDOF 6
