REMARK  4 active torsions:
REMARK  status: ('A' for Active; 'I' for Inactive)
REMARK    1  A    between atoms: C4_6  and  C5_7 
REMARK       I    between atoms: C5_7  and  N3_9 
REMARK    2  A    between atoms: C9_14  and  C10_15 
REMARK    3  A    between atoms: C10_15  and  N4_16 
REMARK       I    between atoms: N4_16  and  C12_18 
REMARK    4  A    between atoms: C12_18  and  C13_20 
ROOT
HETATM    1  C5  UNL     1       2.105   0.750   0.514  1.00  0.00     0.274 C 
HETATM    2  O1  UNL     1       1.736   1.954   0.580  1.00  0.00    -0.266 OA
HETATM    3  N3  UNL     1       1.138  -0.296   0.727  1.00  0.00    -0.344 N 
HETATM    4  C6  UNL     1       1.489  -1.477   1.537  1.00  0.00     0.152 C 
HETATM    5  C7  UNL     1       1.395  -2.779   0.717  1.00  0.00     0.187 C 
HETATM    6  O2  UNL     1       1.005  -2.522  -0.619  1.00  0.00    -0.389 OA
HETATM    7  C8  UNL     1      -0.406  -2.460  -0.747  1.00  0.00     0.175 C 
HETATM    8  C9  UNL     1      -1.073  -1.384   0.154  1.00  0.00     0.045 C 
HETATM    9  C16 UNL     1      -0.231  -0.085   0.219  1.00  0.00     0.134 C 
ENDROOT
BRANCH   8  10
HETATM   10  C10 UNL     1      -2.551  -1.126  -0.247  1.00  0.00     0.134 C 
BRANCH  10  11
HETATM   11  N4  UNL     1      -2.695  -0.133  -1.328  1.00  0.00    -0.351 N 
HETATM   12  C11 UNL     1      -2.552  -0.540  -2.728  1.00  0.00     0.153 C 
HETATM   13  C12 UNL     1      -3.019   1.243  -1.049  1.00  0.00     0.270 C 
HETATM   14  O3  UNL     1      -2.563   2.156  -1.789  1.00  0.00    -0.266 OA
BRANCH  13  15
HETATM   15  C13 UNL     1      -3.979   1.606   0.003  1.00  0.00     0.110 A 
HETATM   16  C14 UNL     1      -5.320   1.866  -0.272  1.00  0.00     0.090 A 
HETATM   17  S1  UNL     1      -6.086   2.261   1.178  1.00  0.00    -0.038 SA
HETATM   18  C15 UNL     1      -4.681   2.083   2.080  1.00  0.00     0.288 A 
HETATM   19  O4  UNL     1      -4.604   2.260   3.323  1.00  0.00    -0.260 OA
HETATM   20  N5  UNL     1      -3.629   1.733   1.313  1.00  0.00    -0.312 N 
HETATM   21  H19 UNL     1      -2.665   1.591   1.685  1.00  0.00     0.170 HD
ENDBRANCH  13  15
ENDBRANCH  10  11
ENDBRANCH   8  10
BRANCH   1  22
HETATM   22  C4  UNL     1       3.507   0.438   0.165  1.00  0.00     0.151 A 
HETATM   23  C2  UNL     1       4.580   1.318   0.127  1.00  0.00    -0.009 A 
HETATM   24  C1  UNL     1       4.593   2.781   0.436  1.00  0.00     0.052 C 
HETATM   25  C3  UNL     1       5.649   0.557  -0.297  1.00  0.00     0.118 A 
HETATM   26  N1  UNL     1       5.221  -0.702  -0.492  1.00  0.00    -0.288 N 
HETATM   27  N2  UNL     1       3.928  -0.784  -0.220  1.00  0.00    -0.169 NA
HETATM   28  H5  UNL     1       5.806  -1.507  -0.808  1.00  0.00     0.188 HD
ENDBRANCH   1  22
TORSDOF 4
