REMARK  2 active torsions:
REMARK  status: ('A' for Active; 'I' for Inactive)
REMARK       I    between atoms: C1_2  and  N1_3 
REMARK    1  A    between atoms: C1_2  and  C22_26 
REMARK       I    between atoms: N1_3  and  C2_4 
REMARK    2  A    between atoms: C2_4  and  C3_6 
ROOT
HETATM    1  C22 UNL     1      -1.332   1.875   0.362  1.00  0.00     0.033 A 
HETATM    2  C23 UNL     1      -1.338   1.166  -0.849  1.00  0.00     0.018 A 
HETATM    3  C24 UNL     1      -2.096   0.008  -0.987  1.00  0.00     0.014 A 
HETATM    4  C25 UNL     1      -2.879  -0.469   0.073  1.00  0.00    -0.018 A 
HETATM    5  C26 UNL     1      -2.978   0.298   1.272  1.00  0.00    -0.042 A 
HETATM    6  C27 UNL     1      -2.182   1.452   1.397  1.00  0.00     0.025 A 
HETATM    7  C28 UNL     1      -3.827  -0.082   2.482  1.00  0.00     0.078 C 
HETATM    8  C29 UNL     1      -5.133  -0.821   2.221  1.00  0.00    -0.043 A 
HETATM    9  C30 UNL     1      -5.456  -1.905   3.059  1.00  0.00     0.008 A 
HETATM   10  C31 UNL     1      -6.632  -2.634   2.866  1.00  0.00     0.001 A 
HETATM   11  C32 UNL     1      -7.511  -2.287   1.842  1.00  0.00     0.001 A 
HETATM   12  C33 UNL     1      -7.224  -1.200   1.015  1.00  0.00     0.013 A 
HETATM   13  C34 UNL     1      -6.050  -0.451   1.203  1.00  0.00    -0.018 A 
HETATM   14  C35 UNL     1      -5.789   0.685   0.299  1.00  0.00    -0.015 A 
HETATM   15  C36 UNL     1      -5.863   1.989   0.816  1.00  0.00     0.013 A 
HETATM   16  C37 UNL     1      -5.657   3.093  -0.012  1.00  0.00     0.001 A 
HETATM   17  C38 UNL     1      -5.388   2.904  -1.368  1.00  0.00     0.001 A 
HETATM   18  C39 UNL     1      -5.307   1.610  -1.894  1.00  0.00     0.012 A 
HETATM   19  C40 UNL     1      -5.475   0.488  -1.069  1.00  0.00    -0.024 A 
HETATM   20  C41 UNL     1      -5.347  -0.853  -1.696  1.00  0.00     0.024 C 
HETATM   21  C42 UNL     1      -4.565  -1.872  -1.271  1.00  0.00    -0.024 C 
HETATM   22  C43 UNL     1      -4.497  -3.061  -2.146  1.00  0.00     0.012 C 
HETATM   23  C44 UNL     1      -4.425  -4.322  -1.717  1.00  0.00     0.001 C 
HETATM   24  C45 UNL     1      -4.477  -4.752  -0.313  1.00  0.00     0.000 C 
HETATM   25  C46 UNL     1      -3.996  -4.075   0.732  1.00  0.00     0.001 C 
HETATM   26  C47 UNL     1      -3.308  -2.773   0.686  1.00  0.00     0.013 C 
HETATM   27  C48 UNL     1      -3.605  -1.749  -0.133  1.00  0.00    -0.015 C 
ENDROOT
BRANCH   1  28
HETATM   28  C1  UNL     1      -0.390   2.996   0.600  1.00  0.00     0.258 C 
HETATM   29  O1  UNL     1      -0.681   3.886   1.444  1.00  0.00    -0.267 OA
HETATM   30  N1  UNL     1       0.889   3.031  -0.059  1.00  0.00    -0.289 N 
HETATM   31  C2  UNL     1       2.066   3.571   0.558  1.00  0.00     0.258 C 
HETATM   32  H1  UNL     1       1.018   2.506  -0.950  1.00  0.00     0.172 HD
HETATM   33  O2  UNL     1       1.967   4.536   1.365  1.00  0.00    -0.267 OA
BRANCH  31  34
HETATM   34  C3  UNL     1       3.403   3.002   0.250  1.00  0.00     0.033 C 
HETATM   35  C4  UNL     1       4.560   3.741   0.496  1.00  0.00     0.018 C 
HETATM   36  C5  UNL     1       5.807   3.221   0.161  1.00  0.00     0.014 C 
HETATM   37  C6  UNL     1       5.951   1.937  -0.420  1.00  0.00    -0.011 C 
HETATM   38  C7  UNL     1       4.794   1.123  -0.537  1.00  0.00     0.027 C 
HETATM   39  C21 UNL     1       7.179   1.613  -1.052  1.00  0.00    -0.014 A 
HETATM   40  C8  UNL     1       3.531   1.693  -0.238  1.00  0.00     0.033 C 
HETATM   41  C9  UNL     1       4.811  -0.238  -0.903  1.00  0.00     0.194 C 
HETATM   42  O3  UNL     1       3.776  -0.719  -1.449  1.00  0.00    -0.287 OA
HETATM   43  C10 UNL     1       5.815  -1.133  -0.489  1.00  0.00     0.026 A 
HETATM   44  C11 UNL     1       5.406  -2.445  -0.139  1.00  0.00     0.016 A 
HETATM   45  C15 UNL     1       7.194  -0.800  -0.375  1.00  0.00    -0.011 A 
HETATM   46  C12 UNL     1       6.296  -3.360   0.414  1.00  0.00     0.001 A 
HETATM   47  C13 UNL     1       7.616  -2.998   0.632  1.00  0.00     0.001 A 
HETATM   48  C14 UNL     1       8.063  -1.740   0.239  1.00  0.00     0.013 A 
HETATM   49  C16 UNL     1       7.764   0.314  -1.038  1.00  0.00    -0.014 A 
HETATM   50  C17 UNL     1       9.008   0.128  -1.700  1.00  0.00     0.013 A 
HETATM   51  C18 UNL     1       9.657   1.173  -2.346  1.00  0.00     0.001 A 
HETATM   52  C19 UNL     1       9.092   2.435  -2.357  1.00  0.00     0.001 A 
HETATM   53  C20 UNL     1       7.876   2.654  -1.721  1.00  0.00     0.013 A 
ENDBRANCH  31  34
ENDBRANCH   1  28
TORSDOF 2
