REMARK  4 active torsions:
REMARK  status: ('A' for Active; 'I' for Inactive)
REMARK    1  A    between atoms: C1_2  and  O2_3 
REMARK    2  A    between atoms: C1_2  and  C16_19 
REMARK    3  A    between atoms: O2_3  and  C2_4 
REMARK    4  A    between atoms: C2_4  and  C3_5 
ROOT
HETATM    1  O1  UNL     1       0.590   0.258  -3.082  1.00  0.00    -0.259 OA
HETATM    2  C1  UNL     1      -0.190  -0.256  -2.233  1.00  0.00     0.293 C 
ENDROOT
BRANCH   2   3
HETATM    3  O2  UNL     1       0.066  -1.539  -1.731  1.00  0.00    -0.313 OA
BRANCH   3   4
HETATM    4  C2  UNL     1       1.222  -2.299  -2.075  1.00  0.00     0.217 C 
BRANCH   4   5
HETATM    5  C3  UNL     1       2.446  -1.711  -1.429  1.00  0.00    -0.033 A 
HETATM    6  C4  UNL     1       3.453  -1.101  -2.218  1.00  0.00     0.010 A 
HETATM    7  C5  UNL     1       4.587  -0.529  -1.617  1.00  0.00     0.014 A 
HETATM    8  C6  UNL     1       4.692  -0.577  -0.229  1.00  0.00    -0.011 A 
HETATM    9  C7  UNL     1       3.710  -1.168   0.547  1.00  0.00     0.026 A 
HETATM   10  C15 UNL     1       5.738  -0.066   0.659  1.00  0.00    -0.011 A 
HETATM   11  C8  UNL     1       2.577  -1.741  -0.025  1.00  0.00     0.025 A 
HETATM   12  C9  UNL     1       4.099  -1.052   1.949  1.00  0.00     0.194 A 
HETATM   13  O3  UNL     1       3.453  -1.466   2.948  1.00  0.00    -0.287 OA
HETATM   14  C10 UNL     1       5.381  -0.353   1.966  1.00  0.00     0.026 A 
HETATM   15  C11 UNL     1       6.189   0.017   3.039  1.00  0.00     0.016 A 
HETATM   16  C12 UNL     1       7.388   0.697   2.762  1.00  0.00     0.001 A 
HETATM   17  C13 UNL     1       7.753   0.990   1.430  1.00  0.00     0.001 A 
HETATM   18  C14 UNL     1       6.923   0.607   0.362  1.00  0.00     0.013 A 
ENDBRANCH   4   5
ENDBRANCH   3   4
ENDBRANCH   2   3
BRANCH   2  19
HETATM   19  C16 UNL     1      -1.377   0.494  -1.765  1.00  0.00     0.040 A 
HETATM   20  C17 UNL     1      -2.242  -0.070  -0.813  1.00  0.00     0.030 A 
HETATM   21  C18 UNL     1      -3.375   0.629  -0.352  1.00  0.00    -0.016 A 
HETATM   22  C19 UNL     1      -3.640   1.919  -0.867  1.00  0.00    -0.038 A 
HETATM   23  C29 UNL     1      -4.250  -0.002   0.680  1.00  0.00     0.001 A 
HETATM   24  C20 UNL     1      -2.776   2.477  -1.823  1.00  0.00     0.009 A 
HETATM   25  C22 UNL     1      -4.864   2.677  -0.446  1.00  0.00     0.142 C 
HETATM   26  C21 UNL     1      -1.654   1.775  -2.263  1.00  0.00     0.018 A 
HETATM   27  C23 UNL     1      -6.066   1.951  -0.956  1.00  0.00     0.226 C 
HETATM   28  O4  UNL     1      -6.807   2.501  -1.815  1.00  0.00    -0.273 OA
HETATM   29  N1  UNL     1      -6.373   0.629  -0.499  1.00  0.00    -0.326 N 
HETATM   30  C24 UNL     1      -5.669  -0.019   0.575  1.00  0.00     0.045 A 
HETATM   31  H15 UNL     1      -7.273   0.207  -0.824  1.00  0.00     0.169 HD
HETATM   32  C25 UNL     1      -6.423  -0.718   1.532  1.00  0.00     0.030 A 
HETATM   33  C26 UNL     1      -5.800  -1.356   2.604  1.00  0.00     0.002 A 
HETATM   34  C27 UNL     1      -4.414  -1.312   2.732  1.00  0.00     0.001 A 
HETATM   35  C28 UNL     1      -3.644  -0.644   1.779  1.00  0.00     0.014 A 
ENDBRANCH   2  19
TORSDOF 4
