REMARK  1 active torsions:
REMARK  status: ('A' for Active; 'I' for Inactive)
REMARK    1  A    between atoms: C1_2  and  C2_3 
REMARK       I    between atoms: C1_2  and  N1_22 
ROOT
HETATM    1  C2  UNL     1      -0.663   0.235   2.311  1.00  0.00     0.044 C 
HETATM    2  C3  UNL     1      -0.709   1.180   3.345  1.00  0.00     0.018 C 
HETATM    3  C4  UNL     1      -1.701   2.142   3.377  1.00  0.00     0.002 C 
HETATM    4  C5  UNL     1      -2.653   2.196   2.367  1.00  0.00     0.013 C 
HETATM    5  C6  UNL     1      -2.713   1.212   1.348  1.00  0.00    -0.010 C 
HETATM    6  C7  UNL     1      -1.733   0.170   1.352  1.00  0.00     0.002 C 
HETATM    7  C8  UNL     1      -1.831  -0.859   0.371  1.00  0.00    -0.013 C 
HETATM    8  C9  UNL     1      -1.230  -2.128   0.558  1.00  0.00     0.013 C 
HETATM    9  C10 UNL     1      -1.198  -3.066  -0.463  1.00  0.00     0.001 C 
HETATM   10  C11 UNL     1      -1.834  -2.800  -1.663  1.00  0.00     0.001 C 
HETATM   11  C12 UNL     1      -2.553  -1.618  -1.829  1.00  0.00     0.013 C 
HETATM   12  C13 UNL     1      -2.596  -0.639  -0.808  1.00  0.00    -0.014 C 
HETATM   13  C14 UNL     1      -3.451   0.493  -0.889  1.00  0.00    -0.011 C 
HETATM   14  C15 UNL     1      -4.166   0.814  -2.075  1.00  0.00     0.013 C 
HETATM   15  C16 UNL     1      -5.155   1.791  -2.071  1.00  0.00     0.004 C 
HETATM   16  C17 UNL     1      -5.482   2.442  -0.894  1.00  0.00     0.043 C 
HETATM   17  C18 UNL     1      -4.755   2.200   0.273  1.00  0.00     0.128 C 
HETATM   18  F1  UNL     1      -5.234   2.759   1.412  1.00  0.00    -0.205 F 
HETATM   19  C19 UNL     1      -3.645   1.306   0.267  1.00  0.00     0.025 C 
ENDROOT
BRANCH   1  20
HETATM   20  C1  UNL     1       0.612  -0.517   2.187  1.00  0.00     0.255 C 
HETATM   21  O1  UNL     1       1.098  -1.057   3.220  1.00  0.00    -0.267 OA
HETATM   22  N1  UNL     1       1.322  -0.610   0.929  1.00  0.00    -0.340 N 
HETATM   23  C20 UNL     1       2.246  -1.733   0.711  1.00  0.00     0.131 C 
HETATM   24  C29 UNL     1       1.368   0.564   0.045  1.00  0.00     0.210 C 
HETATM   25  C21 UNL     1       3.696  -1.252   0.839  1.00  0.00     0.059 C 
HETATM   26  C22 UNL     1       4.263  -0.619  -0.421  1.00  0.00    -0.043 A 
HETATM   27  C23 UNL     1       5.659  -0.700  -0.600  1.00  0.00     0.008 A 
HETATM   28  C27 UNL     1       3.483   0.070  -1.397  1.00  0.00     0.018 A 
HETATM   29  C24 UNL     1       6.273  -0.158  -1.731  1.00  0.00     0.001 A 
HETATM   30  C25 UNL     1       5.506   0.477  -2.706  1.00  0.00     0.001 A 
HETATM   31  C26 UNL     1       4.124   0.584  -2.546  1.00  0.00     0.016 A 
HETATM   32  C28 UNL     1       2.017   0.265  -1.277  1.00  0.00     0.177 C 
HETATM   33  O2  UNL     1       1.290   0.194  -2.308  1.00  0.00    -0.291 OA
ENDBRANCH   1  20
TORSDOF 1
