REMARK  4 active torsions:
REMARK  status: ('A' for Active; 'I' for Inactive)
REMARK    1  A    between atoms: C2_2  and  C3_3 
REMARK    2  A    between atoms: C2_2  and  C8_9 
REMARK    3  A    between atoms: C3_3  and  C4_4 
REMARK       I    between atoms: C8_9  and  N1_11 
REMARK    4  A    between atoms: N2_17  and  C14_18 
ROOT
HETATM    1  C14 UNL     1      -3.156   0.829  -1.457  1.00  0.00     0.146 A 
HETATM    2  N3  UNL     1      -3.807   1.096  -0.292  1.00  0.00    -0.242 NA
HETATM    3  C15 UNL     1      -5.129   1.407  -0.256  1.00  0.00     0.119 A 
HETATM    4  C16 UNL     1      -5.863   1.475  -1.440  1.00  0.00     0.021 A 
HETATM    5  C17 UNL     1      -5.223   1.231  -2.654  1.00  0.00     0.028 A 
HETATM    6  C18 UNL     1      -3.861   0.912  -2.677  1.00  0.00     0.090 A 
HETATM    7  C19 UNL     1      -3.203   0.733  -3.947  1.00  0.00     0.103 C 
HETATM    8  N4  UNL     1      -2.676   0.587  -4.966  1.00  0.00    -0.191 NA
ENDROOT
BRANCH   1   9
HETATM    9  N2  UNL     1      -1.751   0.514  -1.420  1.00  0.00    -0.363 N 
HETATM   10  C13 UNL     1      -1.247  -0.751  -1.986  1.00  0.00     0.149 C 
HETATM   11  C12 UNL     1      -0.696  -1.690  -0.890  1.00  0.00     0.105 C 
HETATM   12  N1  UNL     1       0.315  -1.007  -0.097  1.00  0.00    -0.341 N 
HETATM   13  C11 UNL     1      -1.785  -2.068   0.115  1.00  0.00     0.029 C 
HETATM   14  C8  UNL     1       1.686  -0.870  -0.528  1.00  0.00     0.224 C 
HETATM   15  C9  UNL     1      -0.307  -0.332   1.036  1.00  0.00     0.089 C 
HETATM   16  O1  UNL     1       1.936  -0.821  -1.763  1.00  0.00    -0.273 OA
HETATM   17  C10 UNL     1      -1.601  -1.122   1.304  1.00  0.00     0.027 C 
HETATM   18  C21 UNL     1      -0.585   1.159   0.702  1.00  0.00     0.045 C 
HETATM   19  C20 UNL     1      -0.820   1.461  -0.793  1.00  0.00     0.126 C 
BRANCH  14  20
HETATM   20  C2  UNL     1       2.856  -0.844   0.435  1.00  0.00     0.078 C 
HETATM   21  C1  UNL     1       2.780  -1.993   1.453  1.00  0.00     0.020 C 
BRANCH  20  22
HETATM   22  C3  UNL     1       3.029   0.539   1.098  1.00  0.00     0.052 C 
BRANCH  22  23
HETATM   23  C4  UNL     1       4.392   0.689   1.715  1.00  0.00    -0.050 A 
HETATM   24  C5  UNL     1       4.650   0.471   3.077  1.00  0.00     0.014 A 
HETATM   25  C6  UNL     1       5.987   0.615   3.418  1.00  0.00     0.050 A 
HETATM   26  S1  UNL     1       6.841   1.003   2.026  1.00  0.00    -0.113 SA
HETATM   27  C7  UNL     1       5.529   0.998   0.977  1.00  0.00     0.056 A 
ENDBRANCH  22  23
ENDBRANCH  20  22
ENDBRANCH  14  20
ENDBRANCH   1   9
TORSDOF 4
