REMARK  4 active torsions:
REMARK  status: ('A' for Active; 'I' for Inactive)
REMARK    1  A    between atoms: C6_6  and  C7_7 
REMARK       I    between atoms: C7_7  and  N1_9 
REMARK    2  A    between atoms: N1_9  and  C9_11 
REMARK    3  A    between atoms: C9_11  and  C11_13 
REMARK    4  A    between atoms: C11_13  and  N2_14 
ROOT
HETATM    1  C9  UNL     1      -0.549  -0.715  -1.114  1.00  0.00     0.111 C 
HETATM    2  C10 UNL     1      -1.138  -0.498  -2.515  1.00  0.00     0.034 C 
ENDROOT
BRANCH   1   3
HETATM    3  N1  UNL     1       0.926  -0.818  -1.186  1.00  0.00    -0.346 N 
HETATM    4  C7  UNL     1       1.752   0.305  -1.582  1.00  0.00     0.254 C 
HETATM    5  O1  UNL     1       1.245   1.296  -2.174  1.00  0.00    -0.267 OA
HETATM    6  C8  UNL     1       1.578  -2.105  -0.902  1.00  0.00     0.153 C 
BRANCH   4   7
HETATM    7  C6  UNL     1       3.207   0.310  -1.333  1.00  0.00     0.038 A 
HETATM    8  C5  UNL     1       4.063   0.158  -2.431  1.00  0.00     0.017 A 
HETATM    9  C4  UNL     1       5.443   0.105  -2.251  1.00  0.00     0.002 A 
HETATM   10  C3  UNL     1       5.985   0.191  -0.971  1.00  0.00     0.007 A 
HETATM   11  C2  UNL     1       5.153   0.347   0.150  1.00  0.00    -0.055 A 
HETATM   12  C1  UNL     1       5.784   0.433   1.516  1.00  0.00     0.049 C 
HETATM   13  C18 UNL     1       3.748   0.454  -0.028  1.00  0.00    -0.040 A 
HETATM   14  C19 UNL     1       2.843   0.688   1.162  1.00  0.00     0.050 C 
ENDBRANCH   4   7
ENDBRANCH   1   3
BRANCH   1  15
HETATM   15  C11 UNL     1      -0.960   0.375  -0.084  1.00  0.00     0.297 C 
BRANCH  15  16
HETATM   16  N2  UNL     1      -2.405   0.455   0.234  1.00  0.00     0.092 N 
HETATM   17  C12 UNL     1      -3.229   1.189  -0.750  1.00  0.00     0.281 C 
HETATM   18  C13 UNL     1      -4.271   2.099  -0.057  1.00  0.00     0.133 C 
HETATM   19  C14 UNL     1      -4.356   1.943   1.444  1.00  0.00     0.219 C 
HETATM   20  O2  UNL     1      -4.383   2.975   2.167  1.00  0.00    -0.274 OA
HETATM   21  N3  UNL     1      -4.455   0.652   2.066  1.00  0.00    -0.355 N 
HETATM   22  C15 UNL     1      -4.415  -0.594   1.293  1.00  0.00     0.108 C 
HETATM   23  H20 UNL     1      -4.580   0.615   3.104  1.00  0.00     0.162 HD
HETATM   24  C16 UNL     1      -4.823  -1.784   2.167  1.00  0.00     0.034 C 
HETATM   25  C17 UNL     1      -3.011  -0.815   0.687  1.00  0.00     0.297 C 
ENDBRANCH  15  16
ENDBRANCH   1  15
TORSDOF 4
