REMARK  3 active torsions:
REMARK  status: ('A' for Active; 'I' for Inactive)
REMARK    1  A    between atoms: C3_4  and  C4_5 
REMARK    2  A    between atoms: C4_5  and  C5_6 
REMARK       I    between atoms: C5_6  and  N2_8 
REMARK    3  A    between atoms: N2_8  and  C6_9 
ROOT
HETATM    1  C6  UNL     1      -0.119  -0.104  -0.385  1.00  0.00     0.709 A 
HETATM    2  N3  UNL     1      -0.364   1.168  -0.019  1.00  0.00    -0.066 NA
HETATM    3  C7  UNL     1      -1.689   1.195   0.231  1.00  0.00     0.086 A 
HETATM    4  C8  UNL     1      -2.239  -0.056  -0.041  1.00  0.00     0.057 A 
HETATM    5  N4  UNL     1      -1.232  -0.871  -0.425  1.00  0.00    -0.187 N 
HETATM    6  C9  UNL     1      -1.339  -2.274  -0.827  1.00  0.00     0.175 C 
HETATM    7  C10 UNL     1      -3.654  -0.535   0.203  1.00  0.00     0.092 C 
HETATM    8  C11 UNL     1      -4.744   0.548   0.171  1.00  0.00     0.133 C 
HETATM    9  C12 UNL     1      -4.867   1.263  -1.182  1.00  0.00     0.040 C 
HETATM   10  O2  UNL     1      -4.626   1.451   1.273  1.00  0.00    -0.316 OA
HETATM   11  C13 UNL     1      -3.515   2.245   1.575  1.00  0.00     0.265 C 
HETATM   12  O3  UNL     1      -3.484   2.835   2.687  1.00  0.00    -0.265 OA
HETATM   13  C14 UNL     1      -2.394   2.464   0.607  1.00  0.00     0.173 C 
ENDROOT
BRANCH   1  14
HETATM   14  N2  UNL     1       1.198  -0.563  -0.711  1.00  0.00    -0.157 N 
HETATM   15  C5  UNL     1       1.804  -1.693  -0.068  1.00  0.00     0.241 C 
HETATM   16  O1  UNL     1       1.210  -2.288   0.872  1.00  0.00    -0.272 OA
HETATM   17  H6  UNL     1       1.810   0.073  -1.272  1.00  0.00     0.187 HD
BRANCH  15  18
HETATM   18  C4  UNL     1       3.183  -2.126  -0.457  1.00  0.00     0.163 C 
BRANCH  18  19
HETATM   19  C3  UNL     1       4.200  -1.301   0.266  1.00  0.00     0.050 A 
HETATM   20  N1  UNL     1       4.689  -0.145  -0.261  1.00  0.00    -0.250 NA
HETATM   21  C2  UNL     1       5.552   0.464   0.581  1.00  0.00     0.071 A 
HETATM   22  C1  UNL     1       6.293   1.711   0.241  1.00  0.00     0.078 C 
HETATM   23  S1  UNL     1       5.754  -0.416   1.999  1.00  0.00    -0.085 SA
HETATM   24  C15 UNL     1       4.673  -1.619   1.537  1.00  0.00     0.079 A 
ENDBRANCH  18  19
ENDBRANCH  15  18
ENDBRANCH   1  14
TORSDOF 3
