REMARK  2 active torsions:
REMARK  status: ('A' for Active; 'I' for Inactive)
REMARK    1  A    between atoms: C7_8  and  C8_9 
REMARK       I    between atoms: C8_9  and  N1_11 
REMARK    2  A    between atoms: N2_14  and  C11_15 
ROOT
HETATM    1  C8  UNL     1       0.049  -0.324  -1.066  1.00  0.00     0.255 C 
HETATM    2  O2  UNL     1       0.135  -0.872  -2.199  1.00  0.00    -0.267 OA
HETATM    3  N1  UNL     1       1.247  -0.056  -0.316  1.00  0.00    -0.330 N 
HETATM    4  C9  UNL     1       1.295   0.081   1.135  1.00  0.00     0.147 A 
HETATM    5  C10 UNL     1       2.778   0.064   1.498  1.00  0.00     0.146 A 
HETATM    6  N2  UNL     1       3.494  -0.077   0.236  1.00  0.00    -0.349 N 
HETATM    7  C15 UNL     1       2.576  -0.168  -0.888  1.00  0.00     0.254 A 
ENDROOT
BRANCH   1   8
HETATM    8  C7  UNL     1      -1.289   0.009  -0.536  1.00  0.00     0.032 A 
HETATM    9  C6  UNL     1      -1.540   1.265   0.032  1.00  0.00     0.017 A 
HETATM   10  C5  UNL     1      -2.810   1.578   0.519  1.00  0.00     0.009 A 
HETATM   11  C4  UNL     1      -3.853   0.641   0.447  1.00  0.00    -0.050 A 
HETATM   12  C3  UNL     1      -5.231   1.013   0.939  1.00  0.00     0.048 C 
HETATM   13  C17 UNL     1      -3.615  -0.616  -0.148  1.00  0.00    -0.033 A 
HETATM   14  C2  UNL     1      -6.196   1.208  -0.234  1.00  0.00     0.107 C 
HETATM   15  C1  UNL     1      -6.657  -0.077  -0.878  1.00  0.00     0.218 C 
HETATM   16  O1  UNL     1      -7.849  -0.150  -1.279  1.00  0.00    -0.274 OA
HETATM   17  N5  UNL     1      -5.762  -1.161  -1.178  1.00  0.00    -0.357 N 
HETATM   18  C18 UNL     1      -4.723  -1.629  -0.265  1.00  0.00     0.161 C 
HETATM   19  H19 UNL     1      -6.023  -1.795  -1.967  1.00  0.00     0.162 HD
HETATM   20  C16 UNL     1      -2.335  -0.918  -0.642  1.00  0.00     0.026 A 
ENDBRANCH   1   8
BRANCH   6  21
HETATM   21  C11 UNL     1       4.935  -0.132   0.121  1.00  0.00     0.113 A 
HETATM   22  C12 UNL     1       5.550  -0.252  -1.135  1.00  0.00     0.123 A 
HETATM   23  C13 UNL     1       6.942  -0.299  -1.206  1.00  0.00     0.252 A 
HETATM   24  O3  UNL     1       7.512  -0.406  -2.324  1.00  0.00    -0.268 OA
HETATM   25  N3  UNL     1       7.682  -0.229  -0.068  1.00  0.00    -0.275 N 
HETATM   26  C14 UNL     1       7.081  -0.113   1.146  1.00  0.00     0.328 A 
HETATM   27  H12 UNL     1       8.725  -0.266  -0.127  1.00  0.00     0.173 HD
HETATM   28  O4  UNL     1       7.783  -0.050   2.191  1.00  0.00    -0.247 OA
HETATM   29  N4  UNL     1       5.723  -0.065   1.236  1.00  0.00    -0.294 N 
HETATM   30  H13 UNL     1       5.294   0.024   2.184  1.00  0.00     0.172 HD
ENDBRANCH   6  21
TORSDOF 2
