REMARK  2 active torsions:
REMARK  status: ('A' for Active; 'I' for Inactive)
REMARK    1  A    between atoms: C1_2  and  C2_3 
REMARK    2  A    between atoms: C1_2  and  C28_29 
ROOT
HETATM    1  C2  UNL     1      -0.026   0.197  -0.139  1.00  0.00     0.016 A 
HETATM    2  C3  UNL     1      -1.145   0.898  -0.608  1.00  0.00     0.028 A 
HETATM    3  C4  UNL     1      -2.338   0.958   0.125  1.00  0.00    -0.018 A 
HETATM    4  C5  UNL     1      -2.392   0.304   1.429  1.00  0.00    -0.047 A 
HETATM    5  C6  UNL     1      -1.257  -0.392   1.873  1.00  0.00     0.009 A 
HETATM    6  C7  UNL     1      -0.105  -0.471   1.091  1.00  0.00     0.016 A 
HETATM    7  C8  UNL     1      -3.676   0.145   2.291  1.00  0.00     0.044 C 
HETATM    8  C9  UNL     1      -4.845   0.220   1.344  1.00  0.00     0.044 C 
HETATM    9  C10 UNL     1      -6.234  -0.260   1.334  1.00  0.00    -0.047 A 
HETATM   10  C11 UNL     1      -7.015  -0.228   2.492  1.00  0.00     0.008 A 
HETATM   11  C12 UNL     1      -8.398  -0.397   2.404  1.00  0.00     0.001 A 
HETATM   12  C13 UNL     1      -9.011  -0.534   1.154  1.00  0.00     0.001 A 
HETATM   13  C14 UNL     1      -8.240  -0.536  -0.015  1.00  0.00     0.013 A 
HETATM   14  C15 UNL     1      -6.841  -0.390   0.040  1.00  0.00    -0.019 A 
HETATM   15  C16 UNL     1      -6.025  -0.598  -1.238  1.00  0.00    -0.014 A 
HETATM   16  C17 UNL     1      -6.291  -1.799  -1.931  1.00  0.00     0.013 A 
HETATM   17  C18 UNL     1      -5.506  -2.213  -3.005  1.00  0.00     0.001 A 
HETATM   18  C19 UNL     1      -4.419  -1.444  -3.412  1.00  0.00     0.001 A 
HETATM   19  C20 UNL     1      -4.116  -0.247  -2.765  1.00  0.00     0.013 A 
HETATM   20  C21 UNL     1      -4.892   0.203  -1.687  1.00  0.00    -0.014 A 
HETATM   21  C22 UNL     1      -4.559   1.571  -1.179  1.00  0.00    -0.014 A 
HETATM   22  C23 UNL     1      -5.475   2.586  -1.503  1.00  0.00     0.013 A 
HETATM   23  C24 UNL     1      -5.235   3.914  -1.148  1.00  0.00     0.001 A 
HETATM   24  C25 UNL     1      -4.083   4.249  -0.449  1.00  0.00     0.001 A 
HETATM   25  C26 UNL     1      -3.168   3.265  -0.079  1.00  0.00     0.013 A 
HETATM   26  C27 UNL     1      -3.370   1.918  -0.420  1.00  0.00    -0.014 A 
ENDROOT
BRANCH   1  27
HETATM   27  C1  UNL     1       1.197   0.135  -0.984  1.00  0.00     0.192 C 
HETATM   28  O1  UNL     1       1.054   0.170  -2.240  1.00  0.00    -0.287 OA
BRANCH  27  29
HETATM   29  C28 UNL     1       2.577   0.047  -0.430  1.00  0.00     0.016 C 
HETATM   30  C29 UNL     1       2.886   0.496   0.853  1.00  0.00     0.016 C 
HETATM   31  C30 UNL     1       4.208   0.505   1.296  1.00  0.00     0.014 C 
HETATM   32  C31 UNL     1       5.272   0.084   0.460  1.00  0.00    -0.011 C 
HETATM   33  C32 UNL     1       4.939  -0.587  -0.746  1.00  0.00     0.027 C 
HETATM   34  C46 UNL     1       6.577   0.583   0.712  1.00  0.00    -0.014 A 
HETATM   35  C33 UNL     1       3.605  -0.482  -1.218  1.00  0.00     0.031 C 
HETATM   36  C34 UNL     1       5.831  -1.405  -1.481  1.00  0.00     0.194 C 
HETATM   37  O2  UNL     1       5.516  -1.723  -2.665  1.00  0.00    -0.287 OA
HETATM   38  C35 UNL     1       6.925  -2.073  -0.902  1.00  0.00     0.026 A 
HETATM   39  C36 UNL     1       7.173  -3.401  -1.342  1.00  0.00     0.016 A 
HETATM   40  C40 UNL     1       7.794  -1.501   0.067  1.00  0.00    -0.011 A 
HETATM   41  C37 UNL     1       8.189  -4.170  -0.791  1.00  0.00     0.001 A 
HETATM   42  C38 UNL     1       9.009  -3.630   0.190  1.00  0.00     0.001 A 
HETATM   43  C39 UNL     1       8.825  -2.316   0.604  1.00  0.00     0.013 A 
HETATM   44  C41 UNL     1       7.777  -0.126   0.408  1.00  0.00    -0.014 A 
HETATM   45  C42 UNL     1       9.021   0.544   0.567  1.00  0.00     0.013 A 
HETATM   46  C43 UNL     1       9.095   1.842   1.052  1.00  0.00     0.001 A 
HETATM   47  C44 UNL     1       7.938   2.508   1.413  1.00  0.00     0.001 A 
HETATM   48  C45 UNL     1       6.696   1.896   1.245  1.00  0.00     0.013 A 
ENDBRANCH  27  29
ENDBRANCH   1  27
TORSDOF 2
