REMARK  3 active torsions:
REMARK  status: ('A' for Active; 'I' for Inactive)
REMARK    1  A    between atoms: C5_6  and  C6_7 
REMARK       I    between atoms: C6_7  and  N2_9 
REMARK    2  A    between atoms: C17_21  and  C18_22 
REMARK    3  A    between atoms: C17_21  and  C20_27 
ROOT
HETATM    1  C6  UNL     1       1.618   0.780   1.075  1.00  0.00     0.272 C 
HETATM    2  O1  UNL     1       1.460   1.438   2.140  1.00  0.00    -0.266 OA
HETATM    3  N2  UNL     1       0.720   1.006  -0.028  1.00  0.00    -0.329 N 
HETATM    4  C7  UNL     1       0.290   0.037  -1.019  1.00  0.00     0.136 C 
HETATM    5  C8  UNL     1       0.116   0.866  -2.302  1.00  0.00     0.032 C 
HETATM    6  C9  UNL     1      -0.035   2.321  -1.848  1.00  0.00     0.032 C 
HETATM    7  C10 UNL     1       0.170   2.310  -0.328  1.00  0.00     0.124 C 
HETATM    8  C11 UNL     1      -1.139   2.467   0.407  1.00  0.00    -0.002 A 
HETATM    9  C12 UNL     1      -1.325   3.588   1.235  1.00  0.00     0.012 A 
HETATM   10  C13 UNL     1      -2.544   3.798   1.882  1.00  0.00     0.001 A 
HETATM   11  C14 UNL     1      -3.596   2.901   1.699  1.00  0.00     0.003 A 
HETATM   12  C15 UNL     1      -3.427   1.785   0.878  1.00  0.00     0.037 A 
HETATM   13  C16 UNL     1      -2.202   1.539   0.245  1.00  0.00     0.079 A 
HETATM   14  O2  UNL     1      -2.110   0.383  -0.556  1.00  0.00    -0.324 OA
HETATM   15  C17 UNL     1      -1.062  -0.615  -0.571  1.00  0.00     0.178 C 
ENDROOT
BRANCH  15  16
HETATM   16  C18 UNL     1      -0.949  -1.237   0.816  1.00  0.00     0.189 A 
HETATM   17  N3  UNL     1      -0.411  -2.456   1.062  1.00  0.00    -0.222 NA
HETATM   18  C19 UNL     1      -0.493  -2.547   2.404  1.00  0.00     0.227 A 
HETATM   19  N4  UNL     1      -1.045  -1.444   2.939  1.00  0.00    -0.270 N 
HETATM   20  N5  UNL     1      -1.331  -0.613   1.955  1.00  0.00    -0.155 NA
HETATM   21  H18 UNL     1      -1.223  -1.253   3.952  1.00  0.00     0.190 HD
ENDBRANCH  15  16
BRANCH  15  22
HETATM   22  C20 UNL     1      -1.462  -1.721  -1.565  1.00  0.00    -0.013 A 
HETATM   23  C21 UNL     1      -2.754  -1.751  -2.148  1.00  0.00     0.011 A 
HETATM   24  C22 UNL     1      -3.114  -2.765  -3.041  1.00  0.00     0.001 A 
HETATM   25  C23 UNL     1      -2.202  -3.773  -3.363  1.00  0.00     0.000 A 
HETATM   26  C24 UNL     1      -0.932  -3.777  -2.781  1.00  0.00     0.001 A 
HETATM   27  C25 UNL     1      -0.564  -2.767  -1.887  1.00  0.00     0.011 A 
ENDBRANCH  15  22
BRANCH   1  28
HETATM   28  C5  UNL     1       2.815  -0.076   0.952  1.00  0.00     0.106 A 
HETATM   29  C2  UNL     1       4.110   0.311   1.266  1.00  0.00    -0.028 A 
HETATM   30  C1  UNL     1       4.568   1.652   1.753  1.00  0.00     0.050 C 
HETATM   31  C3  UNL     1       4.906  -0.811   1.134  1.00  0.00     0.026 A 
HETATM   32  C4  UNL     1       4.067  -1.834   0.740  1.00  0.00     0.089 A 
HETATM   33  N1  UNL     1       2.802  -1.386   0.632  1.00  0.00    -0.361 N 
HETATM   34  H6  UNL     1       1.976  -1.978   0.406  1.00  0.00     0.165 HD
ENDBRANCH   1  28
TORSDOF 3
