REMARK  2 active torsions:
REMARK  status: ('A' for Active; 'I' for Inactive)
REMARK    1  A    between atoms: C1_2  and  C2_3 
REMARK       I    between atoms: C1_2  and  N1_25 
REMARK    2  A    between atoms: N1_25  and  C22_26 
ROOT
HETATM    1  O1  UNL     1      -0.009   0.752  -1.943  1.00  0.00    -0.267 OA
HETATM    2  C1  UNL     1       0.508   0.953  -0.812  1.00  0.00     0.259 C 
HETATM    3  N1  UNL     1      -0.308   1.086   0.366  1.00  0.00    -0.323 N 
HETATM    4  H13 UNL     1       0.180   1.274   1.270  1.00  0.00     0.169 HD
ENDROOT
BRANCH   2   5
HETATM    5  C2  UNL     1       1.965   1.128  -0.724  1.00  0.00     0.071 A 
HETATM    6  C3  UNL     1       2.812   0.140  -1.234  1.00  0.00     0.033 A 
HETATM    7  C4  UNL     1       4.207   0.291  -1.179  1.00  0.00    -0.017 A 
HETATM    8  C5  UNL     1       4.759   1.500  -0.688  1.00  0.00    -0.037 A 
HETATM    9  C21 UNL     1       5.036  -0.879  -1.561  1.00  0.00    -0.014 A 
HETATM   10  C6  UNL     1       3.896   2.481  -0.170  1.00  0.00     0.051 A 
HETATM   11  C8  UNL     1       6.242   1.803  -0.768  1.00  0.00     0.123 C 
HETATM   12  C7  UNL     1       2.514   2.289  -0.165  1.00  0.00     0.132 A 
HETATM   13  F1  UNL     1       1.706   3.276   0.308  1.00  0.00    -0.205 F 
HETATM   14  C9  UNL     1       7.089   0.830   0.002  1.00  0.00     0.164 C 
HETATM   15  O2  UNL     1       8.275   0.619  -0.363  1.00  0.00    -0.292 OA
HETATM   16  C10 UNL     1       6.531   0.032   1.099  1.00  0.00     0.021 A 
HETATM   17  C11 UNL     1       6.682   0.464   2.420  1.00  0.00     0.016 A 
HETATM   18  C15 UNL     1       5.865  -1.177   0.819  1.00  0.00    -0.011 A 
HETATM   19  C12 UNL     1       6.197  -0.320   3.472  1.00  0.00     0.001 A 
HETATM   20  C13 UNL     1       5.566  -1.532   3.208  1.00  0.00     0.001 A 
HETATM   21  C14 UNL     1       5.393  -1.962   1.887  1.00  0.00     0.013 A 
HETATM   22  C16 UNL     1       5.714  -1.653  -0.580  1.00  0.00    -0.014 A 
HETATM   23  C17 UNL     1       6.329  -2.855  -0.961  1.00  0.00     0.013 A 
HETATM   24  C18 UNL     1       6.300  -3.278  -2.287  1.00  0.00     0.001 A 
HETATM   25  C19 UNL     1       5.665  -2.506  -3.254  1.00  0.00     0.001 A 
HETATM   26  C20 UNL     1       5.017  -1.321  -2.892  1.00  0.00     0.013 A 
ENDBRANCH   2   5
BRANCH   3  27
HETATM   27  C22 UNL     1      -1.747   1.163   0.349  1.00  0.00     0.035 A 
HETATM   28  C23 UNL     1      -2.392   2.026   1.241  1.00  0.00     0.030 A 
HETATM   29  C24 UNL     1      -3.780   2.150   1.230  1.00  0.00     0.015 A 
HETATM   30  C25 UNL     1      -4.562   1.396   0.341  1.00  0.00    -0.018 A 
HETATM   31  C26 UNL     1      -3.923   0.485  -0.533  1.00  0.00    -0.041 A 
HETATM   32  C40 UNL     1      -6.036   1.603   0.317  1.00  0.00    -0.014 A 
HETATM   33  C27 UNL     1      -2.522   0.363  -0.509  1.00  0.00     0.038 A 
HETATM   34  C28 UNL     1      -4.734  -0.402  -1.437  1.00  0.00     0.078 C 
HETATM   35  C29 UNL     1      -5.506  -1.364  -0.579  1.00  0.00    -0.043 A 
HETATM   36  C30 UNL     1      -5.151  -2.724  -0.571  1.00  0.00     0.008 A 
HETATM   37  C34 UNL     1      -6.540  -0.906   0.275  1.00  0.00    -0.018 A 
HETATM   38  C31 UNL     1      -5.817  -3.623   0.258  1.00  0.00     0.001 A 
HETATM   39  C32 UNL     1      -6.842  -3.179   1.091  1.00  0.00     0.001 A 
HETATM   40  C33 UNL     1      -7.201  -1.832   1.106  1.00  0.00     0.013 A 
HETATM   41  C35 UNL     1      -6.965   0.524   0.292  1.00  0.00    -0.014 A 
HETATM   42  C36 UNL     1      -8.342   0.812   0.272  1.00  0.00     0.013 A 
HETATM   43  C37 UNL     1      -8.798   2.131   0.284  1.00  0.00     0.001 A 
HETATM   44  C38 UNL     1      -7.891   3.184   0.303  1.00  0.00     0.001 A 
HETATM   45  C39 UNL     1      -6.523   2.925   0.318  1.00  0.00     0.013 A 
ENDBRANCH   3  27
TORSDOF 2
