REMARK  6 active torsions:
REMARK  status: ('A' for Active; 'I' for Inactive)
REMARK    1  A    between atoms: C1_2  and  C2_3 
REMARK       I    between atoms: C1_2  and  N2_24 
REMARK    2  A    between atoms: N2_24  and  C21_25 
REMARK    3  A    between atoms: C24_28  and  C44_48 
REMARK    4  A    between atoms: C25_29  and  C27_31 
REMARK    5  A    between atoms: C32_36  and  C33_37 
REMARK    6  A    between atoms: C38_42  and  C39_43 
ROOT
HETATM    1  O1  UNL     1       0.602   0.562  -1.892  1.00  0.00    -0.266 OA
HETATM    2  C1  UNL     1       0.770   0.106  -0.729  1.00  0.00     0.272 C 
HETATM    3  N2  UNL     1      -0.342   0.013   0.180  1.00  0.00    -0.322 N 
HETATM    4  H15 UNL     1      -0.156  -0.261   1.170  1.00  0.00     0.169 HD
ENDROOT
BRANCH   3   5
HETATM    5  C21 UNL     1      -1.718   0.076  -0.231  1.00  0.00     0.035 A 
HETATM    6  C22 UNL     1      -2.172   1.047  -1.136  1.00  0.00     0.030 A 
HETATM    7  C23 UNL     1      -3.513   1.075  -1.526  1.00  0.00     0.015 A 
HETATM    8  C24 UNL     1      -4.428   0.152  -0.999  1.00  0.00    -0.014 A 
HETATM    9  C25 UNL     1      -3.987  -0.804  -0.059  1.00  0.00    -0.012 A 
HETATM   10  C26 UNL     1      -2.636  -0.830   0.318  1.00  0.00     0.042 A 
BRANCH   8  11
HETATM   11  C44 UNL     1      -5.829   0.177  -1.477  1.00  0.00    -0.014 A 
HETATM   12  C39 UNL     1      -6.895   0.536  -0.622  1.00  0.00    -0.014 A 
HETATM   13  C40 UNL     1      -8.203   0.580  -1.131  1.00  0.00     0.013 A 
HETATM   14  C41 UNL     1      -8.453   0.262  -2.467  1.00  0.00     0.001 A 
HETATM   15  C42 UNL     1      -7.400  -0.093  -3.311  1.00  0.00     0.001 A 
HETATM   16  C43 UNL     1      -6.093  -0.130  -2.821  1.00  0.00     0.013 A 
BRANCH  12  17
HETATM   17  C38 UNL     1      -6.660   0.910   0.791  1.00  0.00    -0.014 A 
HETATM   18  C33 UNL     1      -6.213  -0.038   1.740  1.00  0.00    -0.014 A 
HETATM   19  C34 UNL     1      -6.036   0.355   3.077  1.00  0.00     0.013 A 
HETATM   20  C35 UNL     1      -6.289   1.672   3.467  1.00  0.00     0.001 A 
HETATM   21  C36 UNL     1      -6.730   2.606   2.530  1.00  0.00     0.001 A 
HETATM   22  C37 UNL     1      -6.921   2.228   1.199  1.00  0.00     0.013 A 
BRANCH  18  23
HETATM   23  C32 UNL     1      -5.970  -1.450   1.369  1.00  0.00    -0.014 A 
HETATM   24  C27 UNL     1      -4.909  -1.815   0.507  1.00  0.00    -0.014 A 
HETATM   25  C28 UNL     1      -4.689  -3.172   0.220  1.00  0.00     0.013 A 
HETATM   26  C29 UNL     1      -5.517  -4.155   0.768  1.00  0.00     0.001 A 
HETATM   27  C30 UNL     1      -6.565  -3.795   1.616  1.00  0.00     0.001 A 
HETATM   28  C31 UNL     1      -6.788  -2.449   1.920  1.00  0.00     0.013 A 
ENDBRANCH  18  23
ENDBRANCH  12  17
ENDBRANCH   8  11
ENDBRANCH   3   5
BRANCH   2  29
HETATM   29  C2  UNL     1       2.122  -0.352  -0.323  1.00  0.00     0.104 A 
HETATM   30  C3  UNL     1       3.258   0.221  -0.905  1.00  0.00     0.048 A 
HETATM   31  C4  UNL     1       4.554  -0.231  -0.575  1.00  0.00    -0.011 A 
HETATM   32  C5  UNL     1       4.669  -1.259   0.390  1.00  0.00     0.021 A 
HETATM   33  C20 UNL     1       5.722   0.397  -1.294  1.00  0.00    -0.014 C 
HETATM   34  C6  UNL     1       3.498  -1.804   0.963  1.00  0.00     0.253 A 
HETATM   35  C7  UNL     1       6.011  -1.668   0.913  1.00  0.00     0.050 C 
HETATM   36  O2  UNL     1       3.574  -2.713   1.834  1.00  0.00    -0.268 OA
HETATM   37  N1  UNL     1       2.271  -1.357   0.583  1.00  0.00    -0.319 N 
HETATM   38  H2  UNL     1       1.430  -1.821   0.995  1.00  0.00     0.169 HD
HETATM   39  C8  UNL     1       6.548  -0.559   1.831  1.00  0.00     0.044 C 
HETATM   40  C9  UNL     1       7.836  -0.052   1.274  1.00  0.00    -0.047 A 
HETATM   41  C10 UNL     1       9.036  -0.473   1.878  1.00  0.00     0.008 A 
HETATM   42  C14 UNL     1       7.872   0.704   0.075  1.00  0.00    -0.019 A 
HETATM   43  C11 UNL     1      10.268  -0.158   1.310  1.00  0.00     0.001 A 
HETATM   44  C12 UNL     1      10.319   0.556   0.119  1.00  0.00     0.001 A 
HETATM   45  C13 UNL     1       9.138   0.976  -0.495  1.00  0.00     0.013 A 
HETATM   46  C15 UNL     1       6.652   1.250  -0.622  1.00  0.00    -0.014 C 
HETATM   47  C16 UNL     1       6.814   2.556  -1.132  1.00  0.00     0.013 C 
HETATM   48  C17 UNL     1       6.410   2.866  -2.431  1.00  0.00     0.001 C 
HETATM   49  C18 UNL     1       5.828   1.882  -3.225  1.00  0.00     0.001 C 
HETATM   50  C19 UNL     1       5.493   0.649  -2.664  1.00  0.00     0.013 C 
ENDBRANCH   2  29
TORSDOF 6
