REMARK  6 active torsions:
REMARK  status: ('A' for Active; 'I' for Inactive)
REMARK    1  A    between atoms: C1_2  and  C2_3 
REMARK    2  A    between atoms: C1_2  and  C21_24 
REMARK    3  A    between atoms: C23_26  and  C43_48 
REMARK    4  A    between atoms: C24_27  and  C26_31 
REMARK    5  A    between atoms: C31_36  and  C32_37 
REMARK    6  A    between atoms: C37_42  and  C38_43 
ROOT
HETATM    1  C21 UNL     1      -0.757   2.052   0.086  1.00  0.00     0.088 A 
HETATM    2  C22 UNL     1      -1.360   0.917  -0.479  1.00  0.00     0.047 A 
HETATM    3  C23 UNL     1      -2.751   0.859  -0.627  1.00  0.00    -0.006 A 
HETATM    4  C24 UNL     1      -3.534   1.961  -0.237  1.00  0.00     0.054 A 
HETATM    5  C25 UNL     1      -2.894   3.083   0.320  1.00  0.00     0.258 A 
HETATM    6  O3  UNL     1      -3.572   4.080   0.689  1.00  0.00    -0.267 OA
HETATM    7  N2  UNL     1      -1.540   3.103   0.466  1.00  0.00    -0.319 N 
HETATM    8  H16 UNL     1      -1.095   3.952   0.882  1.00  0.00     0.169 HD
ENDROOT
BRANCH   1   9
HETATM    9  C1  UNL     1       0.719   2.150   0.199  1.00  0.00     0.225 C 
HETATM   10  O1  UNL     1       1.262   3.290   0.225  1.00  0.00    -0.283 OA
BRANCH   9  11
HETATM   11  C2  UNL     1       1.579   0.949   0.249  1.00  0.00     0.088 A 
HETATM   12  C3  UNL     1       2.768   0.917  -0.484  1.00  0.00     0.046 A 
HETATM   13  C4  UNL     1       3.565  -0.232  -0.471  1.00  0.00    -0.011 A 
HETATM   14  C5  UNL     1       3.161  -1.354   0.285  1.00  0.00     0.021 A 
HETATM   15  C20 UNL     1       4.841  -0.225  -1.223  1.00  0.00    -0.014 A 
HETATM   16  C6  UNL     1       1.983  -1.259   1.052  1.00  0.00     0.253 A 
HETATM   17  C7  UNL     1       3.945  -2.654   0.212  1.00  0.00     0.050 C 
HETATM   18  O2  UNL     1       1.615  -2.220   1.780  1.00  0.00    -0.268 OA
HETATM   19  N1  UNL     1       1.227  -0.126   1.011  1.00  0.00    -0.320 N 
HETATM   20  H2  UNL     1       0.357  -0.085   1.593  1.00  0.00     0.169 HD
HETATM   21  C8  UNL     1       5.286  -2.681   0.986  1.00  0.00     0.044 C 
HETATM   22  C9  UNL     1       5.679  -1.388   1.673  1.00  0.00    -0.047 A 
HETATM   23  C10 UNL     1       5.647  -1.317   3.078  1.00  0.00     0.008 A 
HETATM   24  C14 UNL     1       6.137  -0.271   0.934  1.00  0.00    -0.019 A 
HETATM   25  C11 UNL     1       6.092  -0.172   3.741  1.00  0.00     0.001 A 
HETATM   26  C12 UNL     1       6.569   0.916   3.010  1.00  0.00     0.001 A 
HETATM   27  C13 UNL     1       6.591   0.870   1.614  1.00  0.00     0.013 A 
HETATM   28  C15 UNL     1       6.082  -0.249  -0.546  1.00  0.00    -0.014 A 
HETATM   29  C16 UNL     1       7.274  -0.191  -1.286  1.00  0.00     0.013 A 
HETATM   30  C17 UNL     1       7.237  -0.117  -2.680  1.00  0.00     0.001 A 
HETATM   31  C18 UNL     1       6.011  -0.095  -3.348  1.00  0.00     0.001 A 
HETATM   32  C19 UNL     1       4.817  -0.144  -2.625  1.00  0.00     0.013 A 
ENDBRANCH   9  11
ENDBRANCH   1   9
BRANCH   3  33
HETATM   33  C43 UNL     1      -3.358  -0.345  -1.239  1.00  0.00    -0.014 A 
HETATM   34  C38 UNL     1      -4.208  -1.200  -0.500  1.00  0.00    -0.014 A 
HETATM   35  C39 UNL     1      -4.726  -2.354  -1.112  1.00  0.00     0.013 A 
HETATM   36  C40 UNL     1      -4.416  -2.651  -2.438  1.00  0.00     0.001 A 
HETATM   37  C41 UNL     1      -3.579  -1.805  -3.167  1.00  0.00     0.001 A 
HETATM   38  C42 UNL     1      -3.047  -0.662  -2.570  1.00  0.00     0.013 A 
BRANCH  34  39
HETATM   39  C37 UNL     1      -4.549  -0.925   0.915  1.00  0.00    -0.014 A 
HETATM   40  C32 UNL     1      -5.349   0.183   1.282  1.00  0.00    -0.014 A 
HETATM   41  C33 UNL     1      -5.704   0.365   2.631  1.00  0.00     0.013 A 
HETATM   42  C34 UNL     1      -5.263  -0.534   3.605  1.00  0.00     0.001 A 
HETATM   43  C35 UNL     1      -4.473  -1.627   3.245  1.00  0.00     0.001 A 
HETATM   44  C36 UNL     1      -4.125  -1.829   1.905  1.00  0.00     0.013 A 
BRANCH  40  45
HETATM   45  C31 UNL     1      -5.867   1.131   0.270  1.00  0.00    -0.014 A 
HETATM   46  C26 UNL     1      -4.999   1.975  -0.462  1.00  0.00    -0.009 A 
HETATM   47  C27 UNL     1      -5.533   2.861  -1.413  1.00  0.00     0.013 A 
HETATM   48  C28 UNL     1      -6.914   2.922  -1.624  1.00  0.00     0.001 A 
HETATM   49  C29 UNL     1      -7.772   2.101  -0.890  1.00  0.00     0.001 A 
HETATM   50  C30 UNL     1      -7.254   1.210   0.052  1.00  0.00     0.013 A 
ENDBRANCH  40  45
ENDBRANCH  34  39
ENDBRANCH   3  33
TORSDOF 6
