REMARK  3 active torsions:
REMARK  status: ('A' for Active; 'I' for Inactive)
REMARK    1  A    between atoms: C4_4  and  C5_5 
REMARK       I    between atoms: C5_5  and  N1_7 
REMARK    2  A    between atoms: N2_12  and  C10_13 
REMARK    3  A    between atoms: C14_17  and  O2_18 
ROOT
HETATM    1  C5  UNL     1       2.951  -0.711   1.485  1.00  0.00     0.255 C 
HETATM    2  O1  UNL     1       2.916  -0.966   2.718  1.00  0.00    -0.267 OA
HETATM    3  N1  UNL     1       1.755  -0.295   0.825  1.00  0.00    -0.346 N 
HETATM    4  C6  UNL     1       0.346  -0.088   1.195  1.00  0.00     0.143 A 
HETATM    5  C7  UNL     1      -0.109   0.450  -0.145  1.00  0.00     0.037 A 
HETATM    6  C8  UNL     1       1.358   0.270  -0.478  1.00  0.00     0.143 A 
HETATM    7  C9  UNL     1      -1.040  -0.508  -0.922  1.00  0.00     0.147 C 
HETATM    8  N2  UNL     1      -2.453  -0.375  -0.520  1.00  0.00    -0.345 N 
HETATM    9  C16 UNL     1      -2.798  -0.124   0.858  1.00  0.00     0.046 A 
HETATM   10  C17 UNL     1      -3.487  -1.106   1.588  1.00  0.00     0.030 A 
HETATM   11  C18 UNL     1      -3.854  -0.873   2.914  1.00  0.00     0.002 A 
HETATM   12  C19 UNL     1      -3.544   0.344   3.522  1.00  0.00     0.001 A 
HETATM   13  C20 UNL     1      -2.867   1.334   2.806  1.00  0.00     0.014 A 
HETATM   14  C21 UNL     1      -2.488   1.114   1.470  1.00  0.00     0.002 A 
HETATM   15  C22 UNL     1      -1.776   2.179   0.713  1.00  0.00    -0.016 A 
HETATM   16  C23 UNL     1      -2.271   3.494   0.749  1.00  0.00     0.013 A 
HETATM   17  C24 UNL     1      -1.702   4.488  -0.047  1.00  0.00     0.001 A 
HETATM   18  C25 UNL     1      -0.653   4.176  -0.909  1.00  0.00     0.001 A 
HETATM   19  C26 UNL     1      -0.144   2.877  -0.953  1.00  0.00     0.009 A 
HETATM   20  C27 UNL     1      -0.651   1.876  -0.099  1.00  0.00    -0.033 A 
ENDROOT
BRANCH   8  21
HETATM   21  C10 UNL     1      -3.506  -0.682  -1.461  1.00  0.00     0.037 A 
HETATM   22  C11 UNL     1      -4.730   0.010  -1.399  1.00  0.00     0.030 A 
HETATM   23  C12 UNL     1      -5.755  -0.281  -2.304  1.00  0.00     0.005 A 
HETATM   24  C13 UNL     1      -5.572  -1.264  -3.278  1.00  0.00     0.036 A 
HETATM   25  C14 UNL     1      -4.360  -1.963  -3.351  1.00  0.00     0.067 A 
HETATM   26  C15 UNL     1      -3.333  -1.672  -2.447  1.00  0.00     0.066 A 
BRANCH  25  27
HETATM   27  O2  UNL     1      -4.167  -2.948  -4.316  1.00  0.00    -0.361 OA
HETATM   28  H14 UNL     1      -4.893  -3.188  -4.982  1.00  0.00     0.217 HD
ENDBRANCH  25  27
ENDBRANCH   8  21
BRANCH   1  29
HETATM   29  C4  UNL     1       4.220  -0.839   0.737  1.00  0.00     0.055 A 
HETATM   30  C3  UNL     1       4.224  -1.527  -0.483  1.00  0.00     0.031 A 
HETATM   31  C2  UNL     1       5.407  -1.679  -1.214  1.00  0.00     0.007 A 
HETATM   32  C1  UNL     1       5.404  -2.446  -2.507  1.00  0.00     0.054 C 
HETATM   33  C30 UNL     1       6.598  -1.159  -0.684  1.00  0.00     0.251 A 
HETATM   34  N3  UNL     1       6.586  -0.494   0.504  1.00  0.00    -0.326 N 
HETATM   35  O3  UNL     1       7.687  -1.305  -1.304  1.00  0.00    -0.268 OA
HETATM   36  C28 UNL     1       5.438  -0.308   1.221  1.00  0.00     0.024 A 
HETATM   37  H27 UNL     1       7.490  -0.117   0.871  1.00  0.00     0.169 HD
HETATM   38  C29 UNL     1       5.501   0.455   2.518  1.00  0.00     0.069 C 
ENDBRANCH   1  29
TORSDOF 3
