REMARK  2 active torsions:
REMARK  status: ('A' for Active; 'I' for Inactive)
REMARK    1  A    between atoms: C4_4  and  N1_5 
REMARK    2  A    between atoms: N2_8  and  C7_9 
ROOT
HETATM    1  N1  UNL     1       0.487  -1.181  -0.579  1.00  0.00    -0.343 N 
HETATM    2  C5  UNL     1       0.041  -1.344  -1.967  1.00  0.00     0.149 C 
HETATM    3  C6  UNL     1      -1.233  -0.531  -2.243  1.00  0.00     0.143 C 
HETATM    4  N2  UNL     1      -2.262  -0.716  -1.205  1.00  0.00    -0.371 N 
HETATM    5  C13 UNL     1      -2.496  -2.042  -0.615  1.00  0.00     0.182 C 
HETATM    6  C14 UNL     1      -1.499  -2.300   0.475  1.00  0.00     0.054 A 
HETATM    7  N3  UNL     1      -1.786  -2.904   1.643  1.00  0.00    -0.366 N 
HETATM    8  C15 UNL     1      -0.665  -2.864   2.392  1.00  0.00     0.090 A 
HETATM    9  C16 UNL     1       0.355  -2.232   1.703  1.00  0.00     0.049 A 
HETATM   10  C17 UNL     1      -0.181  -1.889   0.478  1.00  0.00     0.060 A 
HETATM   11  H15 UNL     1      -2.708  -3.301   1.930  1.00  0.00     0.165 HD
ENDROOT
BRANCH   1  12
HETATM   12  C4  UNL     1       1.431  -0.150  -0.253  1.00  0.00     0.046 A 
HETATM   13  C3  UNL     1       0.960   1.044   0.310  1.00  0.00     0.037 A 
HETATM   14  C2  UNL     1       1.843   2.081   0.634  1.00  0.00    -0.059 A 
HETATM   15  C1  UNL     1       1.318   3.370   1.194  1.00  0.00     0.048 C 
HETATM   16  C24 UNL     1       3.211   1.935   0.366  1.00  0.00     0.019 A 
HETATM   17  C23 UNL     1       3.703   0.745  -0.188  1.00  0.00    -0.023 A 
HETATM   18  C18 UNL     1       2.812  -0.314  -0.498  1.00  0.00     0.001 A 
HETATM   19  C22 UNL     1       5.077   0.595  -0.435  1.00  0.00     0.012 A 
HETATM   20  C19 UNL     1       3.328  -1.510  -1.033  1.00  0.00     0.014 A 
HETATM   21  C20 UNL     1       4.698  -1.645  -1.270  1.00  0.00     0.001 A 
HETATM   22  C21 UNL     1       5.569  -0.595  -0.975  1.00  0.00     0.001 A 
ENDBRANCH   1  12
BRANCH   4  23
HETATM   23  C7  UNL     1      -3.017   0.421  -0.739  1.00  0.00     0.069 A 
HETATM   24  C8  UNL     1      -3.145   0.673   0.639  1.00  0.00     0.032 A 
HETATM   25  C9  UNL     1      -3.858   1.786   1.092  1.00  0.00     0.002 A 
HETATM   26  C10 UNL     1      -4.456   2.655   0.178  1.00  0.00     0.003 A 
HETATM   27  C11 UNL     1      -4.342   2.412  -1.193  1.00  0.00     0.044 A 
HETATM   28  C12 UNL     1      -3.627   1.302  -1.654  1.00  0.00     0.142 A 
HETATM   29  F1  UNL     1      -3.555   1.073  -2.989  1.00  0.00    -0.204 F 
ENDBRANCH   4  23
TORSDOF 2
