REMARK  3 active torsions:
REMARK  status: ('A' for Active; 'I' for Inactive)
REMARK    1  A    between atoms: C2_2  and  C3_4 
REMARK    2  A    between atoms: C6_7  and  C7_8 
REMARK       I    between atoms: N1_11  and  C10_12 
REMARK    3  A    between atoms: C10_12  and  C11_14 
ROOT
HETATM    1  C7  UNL     1       2.292  -0.192  -1.128  1.00  0.00     0.038 C 
HETATM    2  C8  UNL     1       1.518   1.131  -1.073  1.00  0.00     0.031 C 
HETATM    3  C9  UNL     1       0.131   0.768  -0.557  1.00  0.00     0.127 C 
HETATM    4  N1  UNL     1       0.270  -0.543   0.060  1.00  0.00    -0.347 N 
HETATM    5  C10 UNL     1      -0.713  -1.130   0.931  1.00  0.00     0.255 C 
HETATM    6  O2  UNL     1      -0.399  -2.117   1.650  1.00  0.00    -0.267 OA
HETATM    7  C21 UNL     1       1.585  -1.126  -0.143  1.00  0.00     0.135 C 
ENDROOT
BRANCH   5   8
HETATM    8  C11 UNL     1      -2.092  -0.599   1.002  1.00  0.00     0.057 A 
HETATM    9  C12 UNL     1      -2.852  -0.503  -0.170  1.00  0.00     0.028 A 
HETATM   10  C13 UNL     1      -4.164  -0.013  -0.132  1.00  0.00    -0.031 A 
HETATM   11  C14 UNL     1      -4.722   0.345   1.113  1.00  0.00     0.043 A 
HETATM   12  C20 UNL     1      -4.980   0.056  -1.394  1.00  0.00     0.070 C 
HETATM   13  N2  UNL     1      -3.960   0.246   2.236  1.00  0.00    -0.257 NA
HETATM   14  C17 UNL     1      -6.128   0.891   1.248  1.00  0.00     0.089 C 
HETATM   15  C15 UNL     1      -2.677  -0.206   2.223  1.00  0.00     0.046 A 
HETATM   16  C16 UNL     1      -1.927  -0.271   3.521  1.00  0.00     0.071 C 
HETATM   17  C18 UNL     1      -7.231   0.179   0.419  1.00  0.00     0.275 C 
HETATM   18  N3  UNL     1      -6.827  -1.124  -0.133  1.00  0.00     0.084 N 
HETATM   19  C19 UNL     1      -6.088  -1.013  -1.405  1.00  0.00     0.274 C 
HETATM   20  H19 UNL     1      -6.281  -1.677   0.569  1.00  0.00     0.315 HD
ENDBRANCH   5   8
BRANCH   1  21
HETATM   21  C6  UNL     1       3.774  -0.030  -0.845  1.00  0.00    -0.052 A 
HETATM   22  C5  UNL     1       4.717  -0.388  -1.821  1.00  0.00     0.008 A 
HETATM   23  C4  UNL     1       6.086  -0.244  -1.576  1.00  0.00     0.015 A 
HETATM   24  C3  UNL     1       6.546   0.263  -0.346  1.00  0.00     0.009 A 
HETATM   25  C23 UNL     1       5.599   0.621   0.631  1.00  0.00     0.015 A 
HETATM   26  C22 UNL     1       4.231   0.477   0.385  1.00  0.00     0.008 A 
BRANCH  24  27
HETATM   27  C2  UNL     1       7.999   0.423  -0.069  1.00  0.00     0.155 C 
HETATM   28  C1  UNL     1       9.044   0.054  -1.079  1.00  0.00     0.096 C 
HETATM   29  O1  UNL     1       8.377   0.880   1.044  1.00  0.00    -0.293 OA
ENDBRANCH  24  27
ENDBRANCH   1  21
TORSDOF 3
