REMARK  3 active torsions:
REMARK  status: ('A' for Active; 'I' for Inactive)
REMARK    1  A    between atoms: N1_1  and  C1_2 
REMARK    2  A    between atoms: C5_6  and  C6_7 
REMARK       I    between atoms: C6_7  and  N2_9 
REMARK    3  A    between atoms: C10_13  and  N3_14 
ROOT
HETATM    1  C1  UNL     1       5.734   0.174   0.167  1.00  0.00     0.121 A 
HETATM    2  C2  UNL     1       5.156  -0.588  -0.853  1.00  0.00     0.051 A 
HETATM    3  C3  UNL     1       3.790  -0.471  -1.112  1.00  0.00     0.018 A 
HETATM    4  C4  UNL     1       2.999   0.415  -0.357  1.00  0.00     0.009 A 
HETATM    5  C5  UNL     1       1.607   0.571  -0.575  1.00  0.00     0.044 A 
HETATM    6  C16 UNL     1       0.878   1.453   0.239  1.00  0.00     0.018 A 
HETATM    7  C17 UNL     1       1.509   2.173   1.254  1.00  0.00     0.003 A 
HETATM    8  C18 UNL     1       2.879   2.028   1.471  1.00  0.00     0.032 A 
HETATM    9  C19 UNL     1       3.627   1.156   0.674  1.00  0.00     0.070 A 
HETATM   10  N4  UNL     1       4.961   1.017   0.901  1.00  0.00    -0.231 NA
ENDROOT
BRANCH   5  11
HETATM   11  C6  UNL     1       0.889  -0.155  -1.645  1.00  0.00     0.254 C 
HETATM   12  O1  UNL     1       1.230   0.046  -2.843  1.00  0.00    -0.267 OA
HETATM   13  N2  UNL     1      -0.202  -1.055  -1.350  1.00  0.00    -0.348 N 
HETATM   14  C7  UNL     1      -1.133  -1.400  -2.442  1.00  0.00     0.126 C 
HETATM   15  C15 UNL     1      -0.304  -1.701  -0.027  1.00  0.00     0.128 C 
HETATM   16  C8  UNL     1      -2.369  -2.187  -1.976  1.00  0.00     0.022 C 
HETATM   17  C9  UNL     1      -3.309  -1.382  -1.058  1.00  0.00     0.037 C 
HETATM   18  C10 UNL     1      -2.618  -0.456  -0.018  1.00  0.00     0.224 C 
HETATM   19  C14 UNL     1      -1.535  -1.230   0.783  1.00  0.00     0.055 C 
BRANCH  18  20
HETATM   20  N3  UNL     1      -3.644   0.070   0.920  1.00  0.00     0.093 N 
HETATM   21  C11 UNL     1      -3.152   1.173   1.765  1.00  0.00     0.274 A 
HETATM   22  C12 UNL     1      -4.114   2.178   1.169  1.00  0.00     0.060 A 
HETATM   23  C13 UNL     1      -4.567   1.032   0.290  1.00  0.00     0.274 A 
ENDBRANCH  18  20
ENDBRANCH   5  11
BRANCH   1  24
HETATM   24  N1  UNL     1       7.130   0.068   0.447  1.00  0.00    -0.384 N 
HETATM   25  H1  UNL     1       7.558   0.637   1.211  1.00  0.00     0.157 HD
HETATM   26  H2  UNL     1       7.741  -0.576  -0.104  1.00  0.00     0.157 HD
ENDBRANCH   1  24
TORSDOF 3
