REMARK  5 active torsions:
REMARK  status: ('A' for Active; 'I' for Inactive)
REMARK    1  A    between atoms: C2_2  and  C3_3 
REMARK    2  A    between atoms: C6_6  and  N1_7 
REMARK    3  A    between atoms: N1_7  and  C7_8 
REMARK    4  A    between atoms: C21_25  and  C22_26 
REMARK    5  A    between atoms: C22_26  and  O2_27 
ROOT
HETATM    1  C7  UNL     1       0.236  -0.230   0.071  1.00  0.00     0.033 A 
HETATM    2  C8  UNL     1       1.532  -0.524   0.515  1.00  0.00     0.044 A 
HETATM    3  C9  UNL     1       2.627   0.291   0.169  1.00  0.00     0.004 A 
HETATM    4  C10 UNL     1       2.409   1.406  -0.685  1.00  0.00     0.046 A 
HETATM    5  C11 UNL     1       1.108   1.695  -1.119  1.00  0.00     0.033 A 
HETATM    6  C12 UNL     1       0.034   0.884  -0.756  1.00  0.00     0.032 A 
HETATM    7  N2  UNL     1       3.473   2.277  -1.106  1.00  0.00    -0.326 N 
HETATM    8  C13 UNL     1       4.739   1.802  -1.579  1.00  0.00     0.226 C 
HETATM    9  O1  UNL     1       5.568   2.618  -2.062  1.00  0.00    -0.273 OA
HETATM   10  C14 UNL     1       5.096   0.355  -1.486  1.00  0.00     0.142 C 
HETATM   11  C15 UNL     1       5.142  -0.029  -0.036  1.00  0.00    -0.038 A 
HETATM   12  C16 UNL     1       6.377  -0.346   0.557  1.00  0.00     0.011 A 
HETATM   13  C17 UNL     1       6.449  -0.667   1.913  1.00  0.00     0.043 A 
HETATM   14  C18 UNL     1       5.295  -0.664   2.694  1.00  0.00     0.117 A 
HETATM   15  F1  UNL     1       5.369  -0.967   4.014  1.00  0.00    -0.206 F 
HETATM   16  C19 UNL     1       4.062  -0.344   2.120  1.00  0.00     0.055 A 
HETATM   17  C20 UNL     1       3.965  -0.025   0.751  1.00  0.00    -0.014 A 
HETATM   18  H12 UNL     1       3.247   3.285  -1.272  1.00  0.00     0.169 HD
ENDROOT
BRANCH   1  19
HETATM   19  N1  UNL     1      -0.851  -1.100   0.434  1.00  0.00    -0.356 N 
HETATM   20  H8  UNL     1      -0.626  -2.071   0.748  1.00  0.00     0.166 HD
BRANCH  19  21
HETATM   21  C6  UNL     1      -2.229  -0.688   0.464  1.00  0.00     0.041 A 
HETATM   22  C5  UNL     1      -2.576   0.524   1.082  1.00  0.00     0.030 A 
HETATM   23  C4  UNL     1      -3.912   0.913   1.186  1.00  0.00     0.009 A 
HETATM   24  C3  UNL     1      -4.929   0.083   0.698  1.00  0.00    -0.058 A 
HETATM   25  C23 UNL     1      -4.591  -1.127   0.074  1.00  0.00     0.018 A 
HETATM   26  C21 UNL     1      -3.247  -1.518  -0.064  1.00  0.00    -0.008 A 
BRANCH  24  27
HETATM   27  C2  UNL     1      -6.369   0.512   0.793  1.00  0.00     0.034 C 
HETATM   28  C1  UNL     1      -6.779   1.304  -0.443  1.00  0.00     0.010 C 
ENDBRANCH  24  27
BRANCH  26  29
HETATM   29  C22 UNL     1      -2.930  -2.832  -0.745  1.00  0.00     0.205 C 
BRANCH  29  30
HETATM   30  O2  UNL     1      -3.712  -2.998  -1.898  1.00  0.00    -0.396 OA
HETATM   31  H20 UNL     1      -3.354  -2.367  -2.576  1.00  0.00     0.209 HD
ENDBRANCH  29  30
ENDBRANCH  26  29
ENDBRANCH  19  21
ENDBRANCH   1  19
TORSDOF 5
