REMARK  2 active torsions:
REMARK  status: ('A' for Active; 'I' for Inactive)
REMARK    1  A    between atoms: N1_2  and  C2_3 
REMARK    2  A    between atoms: N1_2  and  C14_18 
ROOT
HETATM    1  C2  UNL     1       0.832  -0.520   0.507  1.00  0.00     0.037 A 
HETATM    2  C3  UNL     1       0.490   0.825   0.685  1.00  0.00     0.031 A 
HETATM    3  C4  UNL     1      -0.808   1.262   0.425  1.00  0.00     0.019 A 
HETATM    4  C5  UNL     1      -1.800   0.365  -0.012  1.00  0.00     0.025 A 
HETATM    5  C6  UNL     1      -1.459  -1.005  -0.188  1.00  0.00     0.093 A 
HETATM    6  C7  UNL     1      -0.144  -1.421   0.063  1.00  0.00     0.067 A 
HETATM    7  O1  UNL     1      -2.344  -1.987  -0.667  1.00  0.00    -0.277 OA
HETATM    8  C8  UNL     1      -3.723  -2.057  -0.444  1.00  0.00     0.282 C 
HETATM    9  O2  UNL     1      -4.389  -2.953  -1.025  1.00  0.00    -0.263 OA
HETATM   10  C9  UNL     1      -4.419  -1.107   0.470  1.00  0.00     0.239 C 
HETATM   11  N2  UNL     1      -4.302   0.235  -0.076  1.00  0.00    -0.347 N 
HETATM   12  C10 UNL     1      -5.317   1.047  -0.427  1.00  0.00     0.092 A 
HETATM   13  C11 UNL     1      -4.814   2.249  -0.884  1.00  0.00     0.019 A 
HETATM   14  C12 UNL     1      -3.437   2.159  -0.803  1.00  0.00     0.032 A 
HETATM   15  C13 UNL     1      -3.152   0.897  -0.305  1.00  0.00     0.047 A 
ENDROOT
BRANCH   1  16
HETATM   16  N1  UNL     1       2.178  -0.966   0.760  1.00  0.00    -0.351 N 
HETATM   17  C1  UNL     1       2.402  -2.029   1.746  1.00  0.00     0.156 C 
BRANCH  16  18
HETATM   18  C14 UNL     1       3.298  -0.253   0.186  1.00  0.00     0.034 A 
HETATM   19  C15 UNL     1       3.208   0.276  -1.116  1.00  0.00     0.033 A 
HETATM   20  C16 UNL     1       4.286   0.966  -1.678  1.00  0.00     0.044 A 
HETATM   21  C17 UNL     1       5.466   1.135  -0.951  1.00  0.00     0.116 A 
HETATM   22  F1  UNL     1       6.510   1.805  -1.498  1.00  0.00    -0.206 F 
HETATM   23  C18 UNL     1       5.570   0.614   0.341  1.00  0.00     0.044 A 
HETATM   24  C19 UNL     1       4.495  -0.077   0.908  1.00  0.00     0.033 A 
ENDBRANCH  16  18
ENDBRANCH   1  16
TORSDOF 2
