REMARK  6 active torsions:
REMARK  status: ('A' for Active; 'I' for Inactive)
REMARK       I    between atoms: N1_1  and  C1_2 
REMARK    1  A    between atoms: C1_2  and  C2_4 
REMARK    2  A    between atoms: C8_10  and  C9_11 
REMARK    3  A    between atoms: C12_14  and  C32_34 
REMARK    4  A    between atoms: C13_15  and  C15_17 
REMARK    5  A    between atoms: C20_22  and  C21_23 
REMARK    6  A    between atoms: C26_28  and  C27_29 
ROOT
HETATM    1  C2  UNL     1      -4.426   1.821   2.336  1.00  0.00     0.032 C 
HETATM    2  C3  UNL     1      -4.726   0.615   1.699  1.00  0.00     0.030 C 
HETATM    3  C4  UNL     1      -4.020   0.194   0.560  1.00  0.00    -0.017 C 
HETATM    4  C5  UNL     1      -2.875   0.932   0.137  1.00  0.00    -0.038 C 
HETATM    5  C6  UNL     1      -2.662   2.196   0.736  1.00  0.00     0.010 C 
HETATM    6  C7  UNL     1      -3.418   2.632   1.820  1.00  0.00     0.017 C 
HETATM    7  C8  UNL     1      -1.835   0.506  -0.917  1.00  0.00     0.057 C 
HETATM    8  C33 UNL     1      -1.924  -0.931  -1.494  1.00  0.00     0.053 C 
HETATM    9  C34 UNL     1      -1.766  -2.012  -0.441  1.00  0.00    -0.046 A 
HETATM   10  C35 UNL     1      -0.479  -2.485  -0.108  1.00  0.00     0.008 A 
HETATM   11  C36 UNL     1      -0.319  -3.444   0.895  1.00  0.00     0.001 A 
HETATM   12  C37 UNL     1      -1.434  -3.954   1.570  1.00  0.00     0.001 A 
HETATM   13  C38 UNL     1      -2.722  -3.534   1.215  1.00  0.00     0.013 A 
HETATM   14  C39 UNL     1      -2.892  -2.561   0.216  1.00  0.00    -0.019 A 
HETATM   15  C40 UNL     1      -4.246  -2.205  -0.237  1.00  0.00    -0.014 A 
HETATM   16  C41 UNL     1      -5.039  -3.199  -0.832  1.00  0.00     0.013 A 
HETATM   17  C42 UNL     1      -6.252  -2.870  -1.439  1.00  0.00     0.001 A 
HETATM   18  C43 UNL     1      -6.687  -1.543  -1.459  1.00  0.00     0.001 A 
HETATM   19  C44 UNL     1      -5.913  -0.546  -0.857  1.00  0.00     0.013 A 
HETATM   20  C45 UNL     1      -4.688  -0.864  -0.236  1.00  0.00    -0.014 A 
ENDROOT
BRANCH   7  21
HETATM   21  C9  UNL     1      -0.410   0.735  -0.414  1.00  0.00    -0.048 A 
HETATM   22  C10 UNL     1      -0.053   0.440   0.916  1.00  0.00     0.009 A 
HETATM   23  C11 UNL     1       1.269   0.569   1.340  1.00  0.00     0.014 A 
HETATM   24  C12 UNL     1       2.268   0.980   0.450  1.00  0.00    -0.014 A 
HETATM   25  C13 UNL     1       1.929   1.262  -0.893  1.00  0.00    -0.013 A 
HETATM   26  C14 UNL     1       0.592   1.142  -1.311  1.00  0.00     0.021 A 
BRANCH  24  27
HETATM   27  C32 UNL     1       3.647   1.135   0.959  1.00  0.00    -0.014 A 
HETATM   28  C27 UNL     1       4.690   0.275   0.544  1.00  0.00    -0.014 A 
HETATM   29  C28 UNL     1       5.963   0.399   1.132  1.00  0.00     0.013 A 
HETATM   30  C29 UNL     1       6.202   1.363   2.116  1.00  0.00     0.001 A 
HETATM   31  C30 UNL     1       5.172   2.212   2.525  1.00  0.00     0.001 A 
HETATM   32  C31 UNL     1       3.902   2.102   1.948  1.00  0.00     0.013 A 
BRANCH  28  33
HETATM   33  C26 UNL     1       4.454  -0.802  -0.444  1.00  0.00    -0.014 A 
HETATM   34  C21 UNL     1       4.130  -0.511  -1.790  1.00  0.00    -0.014 A 
HETATM   35  C22 UNL     1       4.000  -1.565  -2.712  1.00  0.00     0.013 A 
HETATM   36  C23 UNL     1       4.172  -2.890  -2.307  1.00  0.00     0.001 A 
HETATM   37  C24 UNL     1       4.485  -3.175  -0.977  1.00  0.00     0.001 A 
HETATM   38  C25 UNL     1       4.619  -2.137  -0.049  1.00  0.00     0.013 A 
BRANCH  34  39
HETATM   39  C20 UNL     1       4.009   0.880  -2.280  1.00  0.00    -0.014 A 
HETATM   40  C15 UNL     1       2.952   1.723  -1.863  1.00  0.00    -0.014 A 
HETATM   41  C16 UNL     1       2.848   3.018  -2.400  1.00  0.00     0.013 A 
HETATM   42  C17 UNL     1       3.785   3.474  -3.331  1.00  0.00     0.001 A 
HETATM   43  C18 UNL     1       4.834   2.645  -3.735  1.00  0.00     0.001 A 
HETATM   44  C19 UNL     1       4.941   1.354  -3.219  1.00  0.00     0.013 A 
ENDBRANCH  34  39
ENDBRANCH  28  33
ENDBRANCH  24  27
ENDBRANCH   7  21
BRANCH   1  45
HETATM   45  C1  UNL     1      -5.199   2.249   3.515  1.00  0.00     0.249 C 
HETATM   46  N1  UNL     1      -5.698   3.579   3.606  1.00  0.00    -0.366 N 
HETATM   47  H1  UNL     1      -5.611   4.244   2.805  1.00  0.00     0.159 HD
HETATM   48  H2  UNL     1      -6.150   3.906   4.496  1.00  0.00     0.159 HD
HETATM   49  O1  UNL     1      -5.421   1.433   4.454  1.00  0.00    -0.268 OA
ENDBRANCH   1  45
TORSDOF 6
