REMARK  3 active torsions:
REMARK  status: ('A' for Active; 'I' for Inactive)
REMARK       I    between atoms: C1_2  and  N1_3 
REMARK    1  A    between atoms: C1_2  and  C23_26 
REMARK    2  A    between atoms: N1_3  and  C2_4 
REMARK    3  A    between atoms: C23_26  and  O3_27 
ROOT
HETATM    1  C2  UNL     1       1.594  -0.124   0.102  1.00  0.00     0.035 A 
HETATM    2  C3  UNL     1       1.348   0.151   1.453  1.00  0.00     0.030 A 
HETATM    3  C4  UNL     1       0.190  -0.323   2.066  1.00  0.00     0.014 A 
HETATM    4  C5  UNL     1      -0.739  -1.094   1.351  1.00  0.00    -0.022 A 
HETATM    5  C6  UNL     1      -0.482  -1.426  -0.005  1.00  0.00     0.027 A 
HETATM    6  C7  UNL     1       0.695  -0.933  -0.604  1.00  0.00     0.046 A 
HETATM    7  C8  UNL     1      -1.286  -2.407  -0.792  1.00  0.00     0.194 C 
HETATM    8  O2  UNL     1      -0.645  -3.213  -1.523  1.00  0.00    -0.287 OA
HETATM    9  C9  UNL     1      -2.772  -2.529  -0.800  1.00  0.00     0.026 A 
HETATM   10  C10 UNL     1      -3.312  -3.826  -0.930  1.00  0.00     0.016 A 
HETATM   11  C11 UNL     1      -4.683  -4.024  -1.094  1.00  0.00     0.001 A 
HETATM   12  C12 UNL     1      -5.544  -2.932  -1.148  1.00  0.00     0.001 A 
HETATM   13  C13 UNL     1      -5.038  -1.640  -1.022  1.00  0.00     0.013 A 
HETATM   14  C14 UNL     1      -3.661  -1.421  -0.847  1.00  0.00    -0.011 A 
HETATM   15  C15 UNL     1      -3.232  -0.036  -0.579  1.00  0.00    -0.015 A 
HETATM   16  C16 UNL     1      -3.132   0.888  -1.629  1.00  0.00     0.013 A 
HETATM   17  C17 UNL     1      -2.857   2.232  -1.355  1.00  0.00     0.001 A 
HETATM   18  C18 UNL     1      -2.704   2.662  -0.033  1.00  0.00     0.001 A 
HETATM   19  C19 UNL     1      -2.817   1.749   1.020  1.00  0.00     0.012 A 
HETATM   20  C20 UNL     1      -3.084   0.399   0.752  1.00  0.00    -0.025 A 
HETATM   21  C21 UNL     1      -3.072  -0.590   1.846  1.00  0.00     0.013 C 
HETATM   22  C22 UNL     1      -2.015  -1.387   2.029  1.00  0.00     0.013 C 
ENDROOT
BRANCH   1  23
HETATM   23  N1  UNL     1       2.785   0.346  -0.553  1.00  0.00    -0.325 N 
HETATM   24  C1  UNL     1       3.423   1.598  -0.253  1.00  0.00     0.256 C 
HETATM   25  O1  UNL     1       2.800   2.493   0.380  1.00  0.00    -0.270 OA
HETATM   26  H1  UNL     1       3.166  -0.216  -1.347  1.00  0.00     0.169 HD
BRANCH  24  27
HETATM   27  C23 UNL     1       4.795   1.896  -0.815  1.00  0.00     0.138 A 
HETATM   28  C24 UNL     1       5.660   2.843   0.027  1.00  0.00     0.048 A 
HETATM   29  C25 UNL     1       6.677   1.729   0.233  1.00  0.00     0.007 A 
HETATM   30  C26 UNL     1       5.814   0.778  -0.586  1.00  0.00     0.048 A 
BRANCH  27  31
HETATM   31  O3  UNL     1       4.743   2.275  -2.166  1.00  0.00    -0.380 OA
HETATM   32  H15 UNL     1       4.240   3.130  -2.203  1.00  0.00     0.211 HD
ENDBRANCH  27  31
ENDBRANCH  24  27
ENDBRANCH   1  23
TORSDOF 3
