REMARK  4 active torsions:
REMARK  status: ('A' for Active; 'I' for Inactive)
REMARK    1  A    between atoms: C7_8  and  C8_9 
REMARK    2  A    between atoms: C11_12  and  C12_13 
REMARK    3  A    between atoms: N2_22  and  C21_23 
REMARK    4  A    between atoms: C21_23  and  C22_24 
ROOT
HETATM    1  C1  UNL     1       1.062  -4.486   0.870  1.00  0.00     0.002 A 
HETATM    2  C2  UNL     1       1.091  -4.379  -0.518  1.00  0.00     0.001 A 
HETATM    3  C3  UNL     1       1.115  -3.121  -1.121  1.00  0.00     0.011 A 
HETATM    4  C4  UNL     1       1.112  -1.948  -0.343  1.00  0.00    -0.014 A 
HETATM    5  C5  UNL     1       1.041  -2.057   1.071  1.00  0.00     0.036 A 
HETATM    6  C6  UNL     1       1.038  -3.335   1.657  1.00  0.00     0.030 A 
HETATM    7  N1  UNL     1       0.952  -0.912   1.946  1.00  0.00    -0.379 N 
HETATM    8  C7  UNL     1       0.481   0.429   1.574  1.00  0.00     0.132 C 
HETATM    9  C20 UNL     1       1.518   1.152   0.668  1.00  0.00     0.147 C 
HETATM   10  N2  UNL     1       2.119   0.334  -0.407  1.00  0.00    -0.402 N 
HETATM   11  C28 UNL     1       1.205  -0.618  -1.062  1.00  0.00     0.158 C 
HETATM   12  H5  UNL     1       1.123  -1.072   2.965  1.00  0.00     0.160 HD
ENDROOT
BRANCH   8  13
HETATM   13  C8  UNL     1      -0.966   0.453   1.065  1.00  0.00    -0.034 A 
HETATM   14  C9  UNL     1      -1.801  -0.683   1.115  1.00  0.00     0.010 A 
HETATM   15  C10 UNL     1      -3.125  -0.623   0.672  1.00  0.00     0.013 A 
HETATM   16  C11 UNL     1      -3.668   0.584   0.203  1.00  0.00    -0.026 A 
HETATM   17  C18 UNL     1      -2.865   1.734   0.213  1.00  0.00     0.013 A 
HETATM   18  C19 UNL     1      -1.541   1.674   0.657  1.00  0.00     0.010 A 
BRANCH  16  19
HETATM   19  C12 UNL     1      -5.074   0.649  -0.269  1.00  0.00    -0.026 A 
HETATM   20  C13 UNL     1      -5.411   1.407  -1.406  1.00  0.00     0.012 A 
HETATM   21  C14 UNL     1      -6.735   1.468  -1.850  1.00  0.00     0.001 A 
HETATM   22  C15 UNL     1      -7.737   0.777  -1.164  1.00  0.00     0.000 A 
HETATM   23  C16 UNL     1      -7.416   0.023  -0.033  1.00  0.00     0.001 A 
HETATM   24  C17 UNL     1      -6.093  -0.043   0.414  1.00  0.00     0.012 A 
ENDBRANCH  16  19
ENDBRANCH   8  13
BRANCH  10  25
HETATM   25  C21 UNL     1       3.455  -0.214  -0.088  1.00  0.00     0.156 C 
BRANCH  25  26
HETATM   26  C22 UNL     1       4.504   0.850  -0.261  1.00  0.00    -0.041 A 
HETATM   27  C23 UNL     1       5.178   1.382   0.851  1.00  0.00     0.009 A 
HETATM   28  C24 UNL     1       6.143   2.379   0.679  1.00  0.00     0.001 A 
HETATM   29  C25 UNL     1       6.437   2.855  -0.602  1.00  0.00     0.000 A 
HETATM   30  C26 UNL     1       5.768   2.334  -1.713  1.00  0.00     0.001 A 
HETATM   31  C27 UNL     1       4.804   1.335  -1.545  1.00  0.00     0.009 A 
ENDBRANCH  25  26
ENDBRANCH  10  25
TORSDOF 4
