REMARK  4 active torsions:
REMARK  status: ('A' for Active; 'I' for Inactive)
REMARK    1  A    between atoms: C1_2  and  C2_3 
REMARK       I    between atoms: C1_2  and  N1_12 
REMARK    2  A    between atoms: C11_14  and  S2_15 
REMARK    3  A    between atoms: S2_15  and  N2_18 
REMARK    4  A    between atoms: C17_25  and  O4_26 
ROOT
HETATM    1  O1  UNL     1       2.825  -1.234  -1.944  1.00  0.00    -0.267 OA
HETATM    2  C1  UNL     1       2.788  -0.848  -0.745  1.00  0.00     0.253 C 
HETATM    3  N1  UNL     1       1.532  -0.831  -0.042  1.00  0.00    -0.344 N 
HETATM    4  C10 UNL     1       0.363  -1.576  -0.488  1.00  0.00     0.150 C 
HETATM    5  C11 UNL     1      -0.841  -0.863   0.142  1.00  0.00     0.172 C 
HETATM    6  C17 UNL     1      -0.232  -0.201   1.394  1.00  0.00     0.157 C 
HETATM    7  C18 UNL     1       1.205   0.122   1.009  1.00  0.00     0.159 C 
ENDROOT
BRANCH   2   8
HETATM    8  C2  UNL     1       4.041  -0.410  -0.098  1.00  0.00     0.033 A 
HETATM    9  C3  UNL     1       4.359  -0.838   1.212  1.00  0.00     0.018 A 
HETATM   10  C4  UNL     1       5.557  -0.437   1.824  1.00  0.00     0.021 A 
HETATM   11  C5  UNL     1       6.422   0.378   1.102  1.00  0.00     0.015 A 
HETATM   12  S1  UNL     1       7.907   0.999   1.575  1.00  0.00    -0.101 SA
HETATM   13  C8  UNL     1       6.139   0.792  -0.189  1.00  0.00    -0.018 A 
HETATM   14  C6  UNL     1       8.205   1.812   0.122  1.00  0.00     0.051 A 
HETATM   15  C7  UNL     1       7.137   1.598  -0.747  1.00  0.00     0.020 A 
HETATM   16  C9  UNL     1       4.951   0.400  -0.810  1.00  0.00     0.029 A 
ENDBRANCH   2   8
BRANCH   5  17
HETATM   17  S2  UNL     1      -1.607   0.315  -1.022  1.00  0.00     0.220 S 
HETATM   18  O2  UNL     1      -1.113   1.712  -0.765  1.00  0.00    -0.211 OA
HETATM   19  O3  UNL     1      -1.245  -0.037  -2.438  1.00  0.00    -0.211 OA
BRANCH  17  20
HETATM   20  N2  UNL     1      -3.355   0.280  -0.901  1.00  0.00    -0.208 NA
HETATM   21  C12 UNL     1      -3.788   0.780   0.420  1.00  0.00     0.109 C 
HETATM   22  C13 UNL     1      -5.236   1.284   0.394  1.00  0.00     0.045 C 
HETATM   23  C14 UNL     1      -6.239   0.254  -0.148  1.00  0.00     0.271 C 
HETATM   24  N3  UNL     1      -6.074   0.040  -1.594  1.00  0.00     0.084 N 
HETATM   25  C15 UNL     1      -5.183  -1.081  -1.927  1.00  0.00     0.285 C 
HETATM   26  H15 UNL     1      -5.740   0.910  -2.071  1.00  0.00     0.315 HD
HETATM   27  C16 UNL     1      -3.853  -1.092  -1.152  1.00  0.00     0.137 C 
ENDBRANCH  17  20
ENDBRANCH   5  17
BRANCH   6  28
HETATM   28  O4  UNL     1      -0.913   0.950   1.816  1.00  0.00    -0.392 OA
HETATM   29  H21 UNL     1      -1.622   0.649   2.443  1.00  0.00     0.210 HD
ENDBRANCH   6  28
TORSDOF 4
