REMARK  6 active torsions:
REMARK  status: ('A' for Active; 'I' for Inactive)
REMARK    1  A    between atoms: C5_5  and  C6_6 
REMARK       I    between atoms: C6_6  and  N1_8 
REMARK    2  A    between atoms: N1_8  and  C7_9 
REMARK    3  A    between atoms: C7_9  and  C9_11 
REMARK    4  A    between atoms: C9_11  and  C10_12 
REMARK       I    between atoms: C10_12  and  N2_14 
REMARK    5  A    between atoms: C14_18  and  O3_19 
REMARK    6  A    between atoms: C16_21  and  C17_22 
ROOT
HETATM    1  C10 UNL     1      -0.586  -0.253   0.884  1.00  0.00     0.223 C 
HETATM    2  O2  UNL     1      -0.665  -1.155   1.762  1.00  0.00    -0.273 OA
HETATM    3  N2  UNL     1      -1.781   0.180   0.192  1.00  0.00    -0.325 N 
HETATM    4  C11 UNL     1      -1.878   1.371  -0.658  1.00  0.00     0.122 C 
HETATM    5  C12 UNL     1      -1.908   2.655   0.211  1.00  0.00     0.033 C 
HETATM    6  C13 UNL     1      -2.370   2.452   1.678  1.00  0.00     0.034 C 
HETATM    7  C14 UNL     1      -3.736   1.749   1.870  1.00  0.00     0.121 C 
HETATM    8  C15 UNL     1      -3.688   0.193   1.752  1.00  0.00     0.073 C 
HETATM    9  C16 UNL     1      -3.126  -0.380   0.415  1.00  0.00     0.093 C 
HETATM   10  C23 UNL     1      -3.906   0.182  -0.732  1.00  0.00    -0.017 A 
HETATM   11  C24 UNL     1      -5.196  -0.148  -1.161  1.00  0.00     0.011 A 
HETATM   12  C25 UNL     1      -5.737   0.547  -2.255  1.00  0.00     0.001 A 
HETATM   13  C26 UNL     1      -4.993   1.562  -2.889  1.00  0.00     0.001 A 
HETATM   14  C27 UNL     1      -3.706   1.886  -2.431  1.00  0.00     0.010 A 
HETATM   15  C28 UNL     1      -3.185   1.177  -1.346  1.00  0.00    -0.026 A 
ENDROOT
BRANCH   1  16
HETATM   16  C9  UNL     1       0.772   0.325   0.579  1.00  0.00     0.127 C 
BRANCH  16  17
HETATM   17  C7  UNL     1       1.633  -0.640  -0.256  1.00  0.00     0.089 C 
HETATM   18  C8  UNL     1       1.099  -0.789  -1.684  1.00  0.00     0.032 C 
BRANCH  17  19
HETATM   19  N1  UNL     1       3.010  -0.139  -0.306  1.00  0.00    -0.352 N 
HETATM   20  C6  UNL     1       4.153  -0.979  -0.063  1.00  0.00     0.252 C 
HETATM   21  O1  UNL     1       4.004  -2.229   0.006  1.00  0.00    -0.268 OA
HETATM   22  H6  UNL     1       3.157   0.834  -0.658  1.00  0.00     0.163 HD
BRANCH  20  23
HETATM   23  C5  UNL     1       5.514  -0.402   0.083  1.00  0.00     0.032 A 
HETATM   24  C4  UNL     1       6.647  -1.225  -0.067  1.00  0.00     0.017 A 
HETATM   25  C3  UNL     1       7.935  -0.697   0.072  1.00  0.00     0.007 A 
HETATM   26  C2  UNL     1       8.115   0.667   0.352  1.00  0.00    -0.062 A 
HETATM   27  C1  UNL     1       9.495   1.226   0.537  1.00  0.00     0.048 C 
HETATM   28  C30 UNL     1       6.991   1.487   0.530  1.00  0.00     0.007 A 
HETATM   29  C29 UNL     1       5.702   0.959   0.397  1.00  0.00     0.017 A 
ENDBRANCH  20  23
ENDBRANCH  17  19
ENDBRANCH  16  17
ENDBRANCH   1  16
BRANCH   9  30
HETATM   30  C17 UNL     1      -3.097  -1.912   0.320  1.00  0.00    -0.025 A 
HETATM   31  C18 UNL     1      -2.593  -2.515  -0.852  1.00  0.00     0.010 A 
HETATM   32  C19 UNL     1      -2.543  -3.906  -0.979  1.00  0.00     0.001 A 
HETATM   33  C20 UNL     1      -2.996  -4.719   0.060  1.00  0.00     0.000 A 
HETATM   34  C21 UNL     1      -3.501  -4.143   1.226  1.00  0.00     0.001 A 
HETATM   35  C22 UNL     1      -3.554  -2.752   1.360  1.00  0.00     0.010 A 
ENDBRANCH   9  30
BRANCH   7  36
HETATM   36  O3  UNL     1      -4.697   2.308   1.010  1.00  0.00    -0.395 OA
HETATM   37  H19 UNL     1      -5.587   2.062   1.370  1.00  0.00     0.210 HD
ENDBRANCH   7  36
TORSDOF 6
