REMARK  2 active torsions:
REMARK  status: ('A' for Active; 'I' for Inactive)
REMARK    1  A    between atoms: C4_4  and  N1_5 
REMARK    2  A    between atoms: C16_20  and  C17_21 
ROOT
HETATM    1  C1  UNL     1       1.207  -3.106   0.954  1.00  0.00     0.049 C 
HETATM    2  C2  UNL     1       0.720  -1.802   0.373  1.00  0.00    -0.046 A 
HETATM    3  C3  UNL     1      -0.630  -1.683   0.005  1.00  0.00     0.058 A 
HETATM    4  C4  UNL     1      -1.115  -0.481  -0.535  1.00  0.00     0.127 A 
HETATM    5  N3  UNL     1      -0.256   0.559  -0.706  1.00  0.00    -0.231 NA
HETATM    6  C13 UNL     1       1.056   0.490  -0.366  1.00  0.00     0.070 A 
HETATM    7  C14 UNL     1       1.878   1.601  -0.566  1.00  0.00     0.033 A 
HETATM    8  C15 UNL     1       3.228   1.550  -0.220  1.00  0.00     0.014 A 
HETATM    9  C16 UNL     1       3.780   0.382   0.331  1.00  0.00    -0.025 A 
HETATM   10  C23 UNL     1       2.952  -0.738   0.533  1.00  0.00     0.026 A 
HETATM   11  C24 UNL     1       1.585  -0.698   0.188  1.00  0.00    -0.000 A 
ENDROOT
BRANCH   4  12
HETATM   12  N1  UNL     1      -2.499  -0.326  -0.921  1.00  0.00    -0.354 N 
HETATM   13  C5  UNL     1      -3.034   0.894  -1.497  1.00  0.00     0.104 C 
HETATM   14  C6  UNL     1      -4.306   0.456  -2.223  1.00  0.00     0.029 C 
HETATM   15  C12 UNL     1      -3.341   1.893  -0.366  1.00  0.00     0.150 C 
HETATM   16  C7  UNL     1      -4.752  -0.830  -1.525  1.00  0.00     0.028 C 
HETATM   17  C8  UNL     1      -3.581  -1.252  -0.618  1.00  0.00     0.095 C 
HETATM   18  C9  UNL     1      -3.942  -1.159   0.881  1.00  0.00     0.128 C 
HETATM   19  C10 UNL     1      -4.083   0.251   1.415  1.00  0.00     0.221 C 
HETATM   20  O1  UNL     1      -4.049   0.426   2.663  1.00  0.00    -0.273 OA
HETATM   21  N2  UNL     1      -4.364   1.375   0.560  1.00  0.00    -0.354 N 
HETATM   22  C11 UNL     1      -5.625   2.091   0.757  1.00  0.00     0.152 C 
ENDBRANCH   4  12
BRANCH   9  23
HETATM   23  C17 UNL     1       5.219   0.331   0.696  1.00  0.00    -0.026 A 
HETATM   24  C18 UNL     1       5.988  -0.816   0.418  1.00  0.00     0.015 A 
HETATM   25  C19 UNL     1       7.342  -0.861   0.762  1.00  0.00     0.043 A 
HETATM   26  C20 UNL     1       7.944   0.234   1.386  1.00  0.00     0.116 A 
HETATM   27  F1  UNL     1       9.258   0.188   1.719  1.00  0.00    -0.206 F 
HETATM   28  C21 UNL     1       7.192   1.377   1.667  1.00  0.00     0.043 A 
HETATM   29  C22 UNL     1       5.838   1.428   1.324  1.00  0.00     0.015 A 
ENDBRANCH   9  23
TORSDOF 2
