REMARK  2 active torsions:
REMARK  status: ('A' for Active; 'I' for Inactive)
REMARK    1  A    between atoms: C2_2  and  C3_3 
REMARK    2  A    between atoms: C10_10  and  C11_11 
REMARK       I    between atoms: C11_11  and  N1_13 
ROOT
HETATM    1  C11 UNL     1      -0.505   2.052  -0.502  1.00  0.00     0.273 C 
HETATM    2  O1  UNL     1      -0.983   3.143  -0.914  1.00  0.00    -0.266 OA
HETATM    3  N1  UNL     1      -1.303   0.860  -0.581  1.00  0.00    -0.330 N 
HETATM    4  C12 UNL     1      -1.980   0.579  -1.862  1.00  0.00     0.129 C 
HETATM    5  C13 UNL     1      -2.675  -0.791  -1.910  1.00  0.00     0.039 C 
HETATM    6  C14 UNL     1      -3.925  -0.887  -1.000  1.00  0.00     0.042 A 
HETATM    7  C15 UNL     1      -4.360  -2.321  -0.695  1.00  0.00     0.020 A 
HETATM    8  C16 UNL     1      -5.198  -1.462  -1.629  1.00  0.00     0.020 A 
HETATM    9  C17 UNL     1      -4.108   0.064   0.165  1.00  0.00     0.227 C 
HETATM   10  O2  UNL     1      -5.237   0.585   0.384  1.00  0.00    -0.273 OA
HETATM   11  N2  UNL     1      -3.015   0.392   1.029  1.00  0.00    -0.344 N 
HETATM   12  C18 UNL     1      -1.628   0.136   0.657  1.00  0.00     0.252 C 
HETATM   13  H19 UNL     1      -3.204   0.958   1.887  1.00  0.00     0.164 HD
ENDROOT
BRANCH   1  14
HETATM   14  C10 UNL     1       0.869   2.010   0.039  1.00  0.00     0.125 A 
HETATM   15  C9  UNL     1       1.615   3.185   0.225  1.00  0.00     0.038 A 
HETATM   16  C8  UNL     1       2.918   3.106   0.716  1.00  0.00     0.016 A 
HETATM   17  C7  UNL     1       3.479   1.858   1.011  1.00  0.00    -0.007 A 
HETATM   18  C6  UNL     1       4.794   1.751   1.481  1.00  0.00     0.014 A 
HETATM   19  C19 UNL     1       2.703   0.692   0.814  1.00  0.00     0.074 A 
HETATM   20  C5  UNL     1       5.344   0.491   1.741  1.00  0.00     0.002 A 
HETATM   21  C4  UNL     1       4.582  -0.665   1.551  1.00  0.00     0.009 A 
HETATM   22  C3  UNL     1       3.250  -0.579   1.107  1.00  0.00    -0.029 A 
HETATM   23  N3  UNL     1       1.434   0.806   0.335  1.00  0.00    -0.242 NA
BRANCH  22  24
HETATM   24  C2  UNL     1       2.444  -1.842   0.917  1.00  0.00     0.036 C 
HETATM   25  C1  UNL     1       2.543  -2.344  -0.520  1.00  0.00     0.010 C 
ENDBRANCH  22  24
ENDBRANCH   1  14
TORSDOF 2
