REMARK  2 active torsions:
REMARK  status: ('A' for Active; 'I' for Inactive)
REMARK    1  A    between atoms: C8_10  and  C9_11 
REMARK       I    between atoms: C9_11  and  N2_13 
REMARK       I    between atoms: N2_13  and  C10_14 
REMARK    2  A    between atoms: C10_14  and  C11_16 
ROOT
HETATM    1  C9  UNL     1       1.462   2.137  -1.199  1.00  0.00     0.275 C 
HETATM    2  O2  UNL     1       1.334   3.063  -2.046  1.00  0.00    -0.266 OA
HETATM    3  N2  UNL     1       0.310   1.394  -0.761  1.00  0.00    -0.288 N 
HETATM    4  C10 UNL     1      -0.976   1.458  -1.406  1.00  0.00     0.258 C 
HETATM    5  O3  UNL     1      -1.201   2.338  -2.281  1.00  0.00    -0.267 OA
HETATM    6  H8  UNL     1       0.395   0.826   0.110  1.00  0.00     0.172 HD
ENDROOT
BRANCH   1   7
HETATM    7  C8  UNL     1       2.809   1.847  -0.651  1.00  0.00     0.104 A 
HETATM    8  N1  UNL     1       3.762   2.824  -0.640  1.00  0.00    -0.318 N 
HETATM    9  C7  UNL     1       5.014   2.609  -0.153  1.00  0.00     0.257 A 
HETATM   10  H7  UNL     1       3.528   3.777  -1.004  1.00  0.00     0.169 HD
HETATM   11  C6  UNL     1       5.369   1.344   0.355  1.00  0.00     0.043 A 
HETATM   12  O1  UNL     1       5.850   3.554  -0.162  1.00  0.00    -0.267 OA
HETATM   13  C5  UNL     1       6.657   1.100   0.862  1.00  0.00     0.018 A 
HETATM   14  C21 UNL     1       4.408   0.301   0.347  1.00  0.00    -0.012 A 
HETATM   15  C4  UNL     1       6.994  -0.158   1.355  1.00  0.00     0.002 A 
HETATM   16  C3  UNL     1       6.058  -1.190   1.350  1.00  0.00     0.007 A 
HETATM   17  C2  UNL     1       4.761  -0.980   0.851  1.00  0.00    -0.051 A 
HETATM   18  C1  UNL     1       3.784  -2.128   0.870  1.00  0.00     0.049 C 
HETATM   19  C20 UNL     1       3.126   0.568  -0.168  1.00  0.00     0.048 A 
ENDBRANCH   1   7
BRANCH   4  20
HETATM   20  C11 UNL     1      -2.056   0.508  -1.042  1.00  0.00     0.035 A 
HETATM   21  C12 UNL     1      -1.760  -0.757  -0.522  1.00  0.00     0.018 A 
HETATM   22  C13 UNL     1      -2.785  -1.642  -0.190  1.00  0.00     0.021 A 
HETATM   23  C14 UNL     1      -4.140  -1.297  -0.366  1.00  0.00     0.065 A 
HETATM   24  C15 UNL     1      -4.445  -0.017  -0.918  1.00  0.00     0.085 A 
HETATM   25  C19 UNL     1      -5.147  -2.328   0.017  1.00  0.00     0.254 C 
HETATM   26  C16 UNL     1      -3.398   0.858  -1.244  1.00  0.00     0.054 A 
HETATM   27  O4  UNL     1      -5.738   0.468  -1.179  1.00  0.00    -0.348 OA
HETATM   28  C17 UNL     1      -6.969  -0.201  -0.951  1.00  0.00     0.195 C 
HETATM   29  C18 UNL     1      -7.041  -0.695   0.484  1.00  0.00     0.149 C 
HETATM   30  N3  UNL     1      -6.432  -2.011   0.567  1.00  0.00    -0.355 N 
HETATM   31  H16 UNL     1      -7.019  -2.796   0.930  1.00  0.00     0.162 HD
HETATM   32  O5  UNL     1      -4.837  -3.546  -0.092  1.00  0.00    -0.268 OA
ENDBRANCH   4  20
TORSDOF 2
