REMARK  4 active torsions:
REMARK  status: ('A' for Active; 'I' for Inactive)
REMARK    1  A    between atoms: C5_5  and  C6_6 
REMARK    2  A    between atoms: C6_6  and  N1_7 
REMARK    3  A    between atoms: N2_12  and  C10_13 
REMARK    4  A    between atoms: C10_13  and  C11_14 
ROOT
HETATM    1  N1  UNL     1       1.811   0.366   0.056  1.00  0.00     0.126 N 
HETATM    2  C7  UNL     1       0.513  -0.009   0.572  1.00  0.00     0.324 C 
HETATM    3  C8  UNL     1       0.069  -1.161  -0.343  1.00  0.00     0.173 C 
HETATM    4  C9  UNL     1      -0.842  -0.604  -1.423  1.00  0.00     0.257 C 
HETATM    5  O1  UNL     1      -0.356  -0.278  -2.541  1.00  0.00    -0.270 OA
HETATM    6  N2  UNL     1      -2.222  -0.319  -1.154  1.00  0.00    -0.345 N 
HETATM    7  C17 UNL     1      -3.153  -1.449  -1.110  1.00  0.00     0.126 C 
HETATM    8  C18 UNL     1      -3.205  -2.098   0.281  1.00  0.00     0.020 C 
HETATM    9  C19 UNL     1      -1.937  -1.941   1.144  1.00  0.00     0.009 C 
HETATM   10  C20 UNL     1      -0.590  -2.324   0.473  1.00  0.00     0.028 C 
HETATM   11  C21 UNL     1      -0.665  -3.647  -0.314  1.00  0.00     0.014 C 
HETATM   12  O2  UNL     1       1.242  -1.656  -0.966  1.00  0.00    -0.334 OA
HETATM   13  C22 UNL     1       2.334  -0.890  -0.505  1.00  0.00     0.356 C 
HETATM   14  C23 UNL     1       3.151  -1.751   0.475  1.00  0.00     0.074 C 
ENDROOT
BRANCH   1  15
HETATM   15  C6  UNL     1       2.645   1.068   1.052  1.00  0.00     0.340 C 
BRANCH  15  16
HETATM   16  C5  UNL     1       3.900   1.583   0.417  1.00  0.00     0.081 A 
HETATM   17  C4  UNL     1       3.964   2.439  -0.666  1.00  0.00     0.037 A 
HETATM   18  C3  UNL     1       5.307   2.637  -0.906  1.00  0.00     0.035 A 
HETATM   19  C2  UNL     1       5.971   1.895   0.051  1.00  0.00     0.049 A 
HETATM   20  C1  UNL     1       7.452   1.771   0.183  1.00  0.00     0.076 C 
HETATM   21  O3  UNL     1       5.110   1.275   0.824  1.00  0.00    -0.318 OA
ENDBRANCH  15  16
ENDBRANCH   1  15
BRANCH   6  22
HETATM   22  C10 UNL     1      -2.723   1.044  -1.373  1.00  0.00     0.164 C 
BRANCH  22  23
HETATM   23  C11 UNL     1      -3.732   1.423  -0.320  1.00  0.00    -0.040 A 
HETATM   24  C12 UNL     1      -5.104   1.452  -0.624  1.00  0.00     0.009 A 
HETATM   25  C13 UNL     1      -6.039   1.767   0.367  1.00  0.00     0.001 A 
HETATM   26  C14 UNL     1      -5.613   2.052   1.667  1.00  0.00     0.000 A 
HETATM   27  C15 UNL     1      -4.252   2.023   1.978  1.00  0.00     0.001 A 
HETATM   28  C16 UNL     1      -3.313   1.710   0.990  1.00  0.00     0.009 A 
ENDBRANCH  22  23
ENDBRANCH   6  22
TORSDOF 4
