REMARK  3 active torsions:
REMARK  status: ('A' for Active; 'I' for Inactive)
REMARK    1  A    between atoms: C1_2  and  C2_3 
REMARK    2  A    between atoms: C1_2  and  C18_21 
REMARK    3  A    between atoms: C5_6  and  C6_7 
ROOT
HETATM    1  C2  UNL     1      -0.048   0.574  -0.427  1.00  0.00     0.013 A 
HETATM    2  C3  UNL     1       0.300  -0.622   0.230  1.00  0.00     0.016 A 
HETATM    3  C4  UNL     1       1.616  -1.092   0.197  1.00  0.00     0.016 A 
HETATM    4  C5  UNL     1       2.610  -0.372  -0.478  1.00  0.00     0.014 A 
HETATM    5  C16 UNL     1       2.270   0.820  -1.138  1.00  0.00     0.128 A 
HETATM    6  F2  UNL     1       3.211   1.521  -1.821  1.00  0.00    -0.205 F 
HETATM    7  C17 UNL     1       0.954   1.291  -1.104  1.00  0.00     0.058 A 
ENDROOT
BRANCH   1   8
HETATM    8  C1  UNL     1      -1.438   1.101  -0.402  1.00  0.00     0.164 C 
HETATM    9  O1  UNL     1      -1.618   2.344  -0.520  1.00  0.00    -0.292 OA
BRANCH   8  10
HETATM   10  C18 UNL     1      -2.645   0.200  -0.211  1.00  0.00     0.074 C 
HETATM   11  C19 UNL     1      -3.115   0.298   1.256  1.00  0.00     0.034 C 
HETATM   12  C20 UNL     1      -4.251  -0.665   1.654  1.00  0.00     0.137 C 
HETATM   13  N1  UNL     1      -5.323  -0.831   0.658  1.00  0.00    -0.348 N 
HETATM   14  C21 UNL     1      -6.324   0.234   0.441  1.00  0.00     0.144 C 
HETATM   15  N2  UNL     1      -4.914  -1.558  -0.486  1.00  0.00    -0.242 NA
HETATM   16  C22 UNL     1      -5.746   1.630   0.160  1.00  0.00     0.099 C 
HETATM   17  C23 UNL     1      -4.639   1.706  -0.869  1.00  0.00     0.134 C 
HETATM   18  O2  UNL     1      -4.412   2.793  -1.379  1.00  0.00    -0.297 OA
HETATM   19  C24 UNL     1      -3.756   0.530  -1.257  1.00  0.00     0.081 C 
HETATM   20  C25 UNL     1      -4.595  -0.702  -1.636  1.00  0.00     0.123 C 
HETATM   21  H22 UNL     1      -5.698  -2.198  -0.753  1.00  0.00     0.146 HD
ENDBRANCH   8  10
ENDBRANCH   1   8
BRANCH   4  22
HETATM   22  C6  UNL     1       3.997  -0.887  -0.515  1.00  0.00    -0.012 A 
HETATM   23  C7  UNL     1       4.241  -2.081  -1.212  1.00  0.00     0.013 A 
HETATM   24  C8  UNL     1       5.533  -2.598  -1.309  1.00  0.00     0.002 A 
HETATM   25  C9  UNL     1       6.603  -1.935  -0.709  1.00  0.00     0.012 A 
HETATM   26  C10 UNL     1       6.387  -0.749   0.007  1.00  0.00    -0.022 A 
HETATM   27  C11 UNL     1       7.466  -0.094   0.623  1.00  0.00     0.054 A 
HETATM   28  C15 UNL     1       5.075  -0.215   0.118  1.00  0.00    -0.015 A 
HETATM   29  C12 UNL     1       7.254   1.075   1.355  1.00  0.00     0.117 A 
HETATM   30  F1  UNL     1       8.301   1.701   1.948  1.00  0.00    -0.206 F 
HETATM   31  C13 UNL     1       5.967   1.597   1.484  1.00  0.00     0.043 A 
HETATM   32  C14 UNL     1       4.883   0.959   0.876  1.00  0.00     0.016 A 
ENDBRANCH   4  22
TORSDOF 3
