REMARK  3 active torsions:
REMARK  status: ('A' for Active; 'I' for Inactive)
REMARK       I    between atoms: C1_2  and  N1_3 
REMARK    1  A    between atoms: C1_2  and  C16_20 
REMARK    2  A    between atoms: N1_3  and  C2_4 
REMARK    3  A    between atoms: C4_6  and  C5_7 
ROOT
HETATM    1  C2  UNL     1       0.655   1.301  -0.265  1.00  0.00     0.036 A 
HETATM    2  C3  UNL     1       1.570   0.239  -0.248  1.00  0.00     0.045 A 
HETATM    3  C4  UNL     1       2.879   0.413   0.233  1.00  0.00     0.025 A 
HETATM    4  C9  UNL     1       3.289   1.696   0.684  1.00  0.00    -0.012 A 
HETATM    5  C10 UNL     1       4.614   1.966   1.091  1.00  0.00     0.013 A 
HETATM    6  C11 UNL     1       4.976   3.237   1.543  1.00  0.00     0.001 A 
HETATM    7  C12 UNL     1       4.034   4.263   1.585  1.00  0.00     0.001 A 
HETATM    8  C13 UNL     1       2.726   4.030   1.160  1.00  0.00     0.012 A 
HETATM    9  C14 UNL     1       2.347   2.759   0.698  1.00  0.00    -0.023 A 
HETATM   10  C15 UNL     1       1.041   2.547   0.237  1.00  0.00     0.042 A 
ENDROOT
BRANCH   1  11
HETATM   11  N1  UNL     1      -0.696   1.114  -0.721  1.00  0.00    -0.323 N 
HETATM   12  C1  UNL     1      -1.071   0.188  -1.752  1.00  0.00     0.256 C 
HETATM   13  O1  UNL     1      -0.216  -0.217  -2.585  1.00  0.00    -0.267 OA
HETATM   14  H1  UNL     1      -1.444   1.726  -0.322  1.00  0.00     0.169 HD
BRANCH  12  15
HETATM   15  C16 UNL     1      -2.483  -0.219  -1.909  1.00  0.00     0.041 A 
HETATM   16  C17 UNL     1      -3.096   0.040  -3.141  1.00  0.00     0.018 A 
HETATM   17  C18 UNL     1      -4.418  -0.321  -3.365  1.00  0.00     0.002 A 
HETATM   18  C19 UNL     1      -5.147  -0.950  -2.363  1.00  0.00     0.016 A 
HETATM   19  C20 UNL     1      -4.569  -1.234  -1.114  1.00  0.00     0.019 A 
HETATM   20  C21 UNL     1      -3.204  -0.879  -0.872  1.00  0.00    -0.005 A 
HETATM   21  C25 UNL     1      -5.432  -1.921  -0.122  1.00  0.00     0.162 C 
HETATM   22  C22 UNL     1      -2.439  -1.287   0.391  1.00  0.00     0.208 C 
HETATM   23  O2  UNL     1      -3.205  -1.959   1.368  1.00  0.00    -0.386 OA
HETATM   24  C23 UNL     1      -4.192  -1.099   1.902  1.00  0.00     0.175 C 
HETATM   25  C24 UNL     1      -5.545  -1.461   1.305  1.00  0.00     0.110 C 
HETATM   26  O3  UNL     1      -6.173  -2.867  -0.507  1.00  0.00    -0.292 OA
ENDBRANCH  12  15
ENDBRANCH   1  11
BRANCH   3  27
HETATM   27  C5  UNL     1       3.759  -0.776   0.281  1.00  0.00     0.160 A 
HETATM   28  N2  UNL     1       4.456  -1.073   1.413  1.00  0.00    -0.241 NA
HETATM   29  C6  UNL     1       5.236  -2.182   1.486  1.00  0.00     0.120 A 
HETATM   30  C7  UNL     1       5.321  -3.045   0.394  1.00  0.00     0.038 A 
HETATM   31  C8  UNL     1       4.588  -2.739  -0.751  1.00  0.00     0.120 A 
HETATM   32  N3  UNL     1       3.820  -1.619  -0.785  1.00  0.00    -0.241 NA
ENDBRANCH   3  27
TORSDOF 3
