REMARK  4 active torsions:
REMARK  status: ('A' for Active; 'I' for Inactive)
REMARK    1  A    between atoms: C6_8  and  C7_9 
REMARK       I    between atoms: C7_9  and  N2_11 
REMARK    2  A    between atoms: N2_11  and  C8_12 
REMARK    3  A    between atoms: C8_12  and  C9_13 
REMARK    4  A    between atoms: N3_18  and  C13_19 
ROOT
HETATM    1  C13 UNL     1       3.448  -0.747   0.171  1.00  0.00     0.149 A 
HETATM    2  C14 UNL     1       4.724  -0.408  -0.312  1.00  0.00     0.076 A 
HETATM    3  C15 UNL     1       5.316  -1.194  -1.302  1.00  0.00     0.067 A 
HETATM    4  C16 UNL     1       6.624  -0.868  -1.809  1.00  0.00     0.101 C 
HETATM    5  N4  UNL     1       7.676  -0.607  -2.215  1.00  0.00    -0.191 NA
HETATM    6  C17 UNL     1       4.625  -2.301  -1.793  1.00  0.00     0.163 A 
HETATM    7  N5  UNL     1       3.398  -2.598  -1.294  1.00  0.00    -0.159 NA
HETATM    8  N6  UNL     1       2.833  -1.850  -0.346  1.00  0.00    -0.133 NA
ENDROOT
BRANCH   1   9
HETATM    9  N3  UNL     1       2.780   0.046   1.183  1.00  0.00    -0.362 N 
HETATM   10  C12 UNL     1       3.183   1.454   1.391  1.00  0.00     0.150 C 
HETATM   11  C11 UNL     1       2.211   2.288   2.272  1.00  0.00     0.187 C 
HETATM   12  O3  UNL     1       0.817   2.315   1.952  1.00  0.00    -0.389 OA
HETATM   13  C10 UNL     1       0.434   1.569   0.814  1.00  0.00     0.175 C 
HETATM   14  C9  UNL     1       0.309   0.060   1.128  1.00  0.00     0.045 C 
HETATM   15  C18 UNL     1       1.568  -0.479   1.829  1.00  0.00     0.133 C 
BRANCH  14  16
HETATM   16  C8  UNL     1      -0.942  -0.236   1.980  1.00  0.00     0.131 C 
BRANCH  16  17
HETATM   17  N2  UNL     1      -2.163  -0.059   1.194  1.00  0.00    -0.355 N 
HETATM   18  C7  UNL     1      -2.618  -1.043   0.253  1.00  0.00     0.268 C 
HETATM   19  O2  UNL     1      -2.041  -2.161   0.180  1.00  0.00    -0.266 OA
HETATM   20  H7  UNL     1      -2.776   0.760   1.409  1.00  0.00     0.162 HD
BRANCH  18  21
HETATM   21  C6  UNL     1      -3.806  -0.790  -0.589  1.00  0.00     0.109 A 
HETATM   22  C2  UNL     1      -3.940   0.390  -1.360  1.00  0.00    -0.029 A 
HETATM   23  C1  UNL     1      -2.863   1.440  -1.424  1.00  0.00     0.050 C 
HETATM   24  C3  UNL     1      -5.120   0.584  -2.093  1.00  0.00     0.014 A 
HETATM   25  C4  UNL     1      -6.114  -0.391  -2.096  1.00  0.00     0.075 A 
HETATM   26  C5  UNL     1      -5.927  -1.562  -1.363  1.00  0.00     0.245 A 
HETATM   27  O1  UNL     1      -6.813  -2.458  -1.374  1.00  0.00    -0.268 OA
HETATM   28  N1  UNL     1      -4.789  -1.738  -0.635  1.00  0.00    -0.319 N 
HETATM   29  H6  UNL     1      -4.679  -2.622  -0.085  1.00  0.00     0.169 HD
ENDBRANCH  18  21
ENDBRANCH  16  17
ENDBRANCH  14  16
ENDBRANCH   1   9
TORSDOF 4
