REMARK  2 active torsions:
REMARK  status: ('A' for Active; 'I' for Inactive)
REMARK    1  A    between atoms: S1_2  and  C1_4 
REMARK    2  A    between atoms: S1_2  and  C21_27 
ROOT
HETATM    1  C1  UNL     1      -1.155   0.190  -0.203  1.00  0.00     0.071 A 
HETATM    2  C2  UNL     1      -0.678  -1.130  -0.175  1.00  0.00     0.027 A 
HETATM    3  C3  UNL     1      -1.425  -2.149   0.400  1.00  0.00     0.045 A 
HETATM    4  C4  UNL     1      -2.656  -1.874   0.973  1.00  0.00     0.128 A 
HETATM    5  F1  UNL     1      -3.345  -2.884   1.562  1.00  0.00    -0.205 F 
HETATM    6  C5  UNL     1      -3.187  -0.574   0.940  1.00  0.00     0.022 A 
HETATM    7  C6  UNL     1      -2.469   0.477   0.290  1.00  0.00    -0.016 A 
HETATM    8  C7  UNL     1      -3.033   1.902   0.222  1.00  0.00     0.125 C 
HETATM    9  C8  UNL     1      -4.468   2.104  -0.336  1.00  0.00     0.275 C 
HETATM   10  F2  UNL     1      -4.504   3.300  -1.039  1.00  0.00    -0.200 F 
HETATM   11  F3  UNL     1      -5.350   2.275   0.721  1.00  0.00    -0.200 F 
HETATM   12  C9  UNL     1      -4.929   0.974  -1.249  1.00  0.00     0.024 A 
HETATM   13  C10 UNL     1      -4.715   1.062  -2.638  1.00  0.00     0.014 A 
HETATM   14  C11 UNL     1      -5.161   0.052  -3.493  1.00  0.00     0.001 A 
HETATM   15  C12 UNL     1      -5.818  -1.064  -2.974  1.00  0.00     0.001 A 
HETATM   16  C13 UNL     1      -6.014  -1.185  -1.597  1.00  0.00     0.013 A 
HETATM   17  C14 UNL     1      -5.558  -0.184  -0.727  1.00  0.00    -0.013 A 
HETATM   18  C15 UNL     1      -5.681  -0.376   0.731  1.00  0.00    -0.014 A 
HETATM   19  C16 UNL     1      -6.951  -0.425   1.324  1.00  0.00     0.013 A 
HETATM   20  C17 UNL     1      -7.076  -0.481   2.715  1.00  0.00     0.001 A 
HETATM   21  C18 UNL     1      -5.936  -0.487   3.522  1.00  0.00     0.001 A 
HETATM   22  C19 UNL     1      -4.667  -0.458   2.940  1.00  0.00     0.013 A 
HETATM   23  C20 UNL     1      -4.527  -0.396   1.544  1.00  0.00    -0.011 A 
ENDROOT
BRANCH   1  24
HETATM   24  S1  UNL     1      -0.062   1.436  -0.856  1.00  0.00     0.207 S 
HETATM   25  O1  UNL     1      -0.537   1.859  -2.219  1.00  0.00    -0.217 OA
HETATM   26  O2  UNL     1      -0.044   2.638   0.049  1.00  0.00    -0.217 OA
BRANCH  24  27
HETATM   27  C21 UNL     1       1.598   0.844  -0.979  1.00  0.00     0.065 A 
HETATM   28  C22 UNL     1       2.483   1.007   0.087  1.00  0.00     0.037 A 
HETATM   29  C23 UNL     1       3.823   0.542   0.023  1.00  0.00    -0.013 A 
HETATM   30  C24 UNL     1       4.221  -0.216  -1.117  1.00  0.00    -0.014 A 
HETATM   31  C38 UNL     1       4.769   0.824   1.055  1.00  0.00    -0.014 A 
HETATM   32  C25 UNL     1       3.310  -0.331  -2.201  1.00  0.00     0.014 A 
HETATM   33  C27 UNL     1       5.504  -0.835  -1.145  1.00  0.00    -0.014 A 
HETATM   34  C26 UNL     1       2.024   0.196  -2.130  1.00  0.00     0.025 A 
HETATM   35  C28 UNL     1       5.869  -1.745  -2.176  1.00  0.00     0.013 A 
HETATM   36  C32 UNL     1       6.442  -0.584  -0.098  1.00  0.00    -0.014 A 
HETATM   37  C29 UNL     1       7.120  -2.353  -2.200  1.00  0.00     0.001 A 
HETATM   38  C30 UNL     1       8.034  -2.097  -1.194  1.00  0.00     0.001 A 
HETATM   39  C31 UNL     1       7.704  -1.238  -0.151  1.00  0.00     0.013 A 
HETATM   40  C33 UNL     1       6.091   0.287   0.976  1.00  0.00    -0.014 A 
HETATM   41  C34 UNL     1       7.027   0.651   1.982  1.00  0.00     0.013 A 
HETATM   42  C35 UNL     1       6.672   1.476   3.042  1.00  0.00     0.001 A 
HETATM   43  C36 UNL     1       5.388   1.978   3.130  1.00  0.00     0.001 A 
HETATM   44  C37 UNL     1       4.450   1.670   2.153  1.00  0.00     0.013 A 
ENDBRANCH  24  27
ENDBRANCH   1  24
TORSDOF 2
