REMARK  5 active torsions:
REMARK  status: ('A' for Active; 'I' for Inactive)
REMARK    1  A    between atoms: C7_7  and  N1_8 
REMARK    2  A    between atoms: N1_8  and  C8_9 
REMARK    3  A    between atoms: C8_9  and  C9_10 
REMARK    4  A    between atoms: C8_9  and  C20_22 
REMARK    5  A    between atoms: C13_14  and  C14_15 
REMARK       I    between atoms: C20_22  and  N3_24 
ROOT
HETATM    1  C8  UNL     1       0.705  -0.359  -0.971  1.00  0.00     0.363 C 
ENDROOT
BRANCH   1   2
HETATM    2  N1  UNL     1      -0.570   0.208  -0.461  1.00  0.00     0.107 N 
HETATM    3  H12 UNL     1      -1.069   0.704  -1.236  1.00  0.00     0.318 HD
BRANCH   2   4
HETATM    4  C7  UNL     1      -1.496  -0.704   0.249  1.00  0.00     0.222 C 
HETATM    5  C6  UNL     1      -2.507  -1.414  -0.777  1.00  0.00     0.040 C 
HETATM    6  C5  UNL     1      -3.886  -0.730  -0.846  1.00  0.00    -0.012 C 
HETATM    7  C4  UNL     1      -4.837   0.194  -1.614  1.00  0.00     0.005 C 
HETATM    8  C23 UNL     1      -4.604  -0.853   0.492  1.00  0.00     0.013 C 
HETATM    9  C3  UNL     1      -5.277   1.199  -0.488  1.00  0.00     0.009 C 
HETATM   10  C2  UNL     1      -4.714   0.609   0.863  1.00  0.00    -0.044 C 
HETATM   11  C1  UNL     1      -5.698   0.812   2.026  1.00  0.00     0.015 C 
HETATM   12  C22 UNL     1      -3.261   1.159   1.231  1.00  0.00     0.011 C 
HETATM   13  C21 UNL     1      -2.126   0.086   1.476  1.00  0.00     0.036 C 
ENDBRANCH   2   4
ENDBRANCH   1   2
BRANCH   1  14
HETATM   14  C9  UNL     1       1.859  -0.133  -0.016  1.00  0.00     0.077 A 
HETATM   15  C10 UNL     1       1.723  -0.230   1.379  1.00  0.00     0.030 A 
HETATM   16  C11 UNL     1       2.836  -0.029   2.193  1.00  0.00     0.004 A 
HETATM   17  C12 UNL     1       4.078   0.251   1.625  1.00  0.00     0.032 A 
HETATM   18  C13 UNL     1       4.199   0.317   0.227  1.00  0.00     0.067 A 
HETATM   19  N2  UNL     1       3.089   0.127  -0.541  1.00  0.00    -0.250 NA
BRANCH  18  20
HETATM   20  C14 UNL     1       5.498   0.607  -0.434  1.00  0.00    -0.007 A 
HETATM   21  C15 UNL     1       6.724   0.246   0.161  1.00  0.00     0.014 A 
HETATM   22  C16 UNL     1       7.933   0.521  -0.484  1.00  0.00     0.001 A 
HETATM   23  C17 UNL     1       7.937   1.152  -1.729  1.00  0.00     0.000 A 
HETATM   24  C18 UNL     1       6.730   1.504  -2.336  1.00  0.00     0.001 A 
HETATM   25  C19 UNL     1       5.517   1.231  -1.696  1.00  0.00     0.014 A 
ENDBRANCH  18  20
ENDBRANCH   1  14
BRANCH   1  26
HETATM   26  C20 UNL     1       0.623  -1.796  -1.447  1.00  0.00     0.255 C 
HETATM   27  O1  UNL     1       0.312  -2.027  -2.646  1.00  0.00    -0.271 OA
HETATM   28  N3  UNL     1       0.888  -2.898  -0.574  1.00  0.00    -0.368 N 
HETATM   29  H22 UNL     1       1.154  -2.756   0.424  1.00  0.00     0.159 HD
HETATM   30  H23 UNL     1       0.815  -3.876  -0.933  1.00  0.00     0.159 HD
ENDBRANCH   1  26
TORSDOF 5
