REMARK  1 active torsions:
REMARK  status: ('A' for Active; 'I' for Inactive)
REMARK    1  A    between atoms: C5_6  and  C6_7 
REMARK       I    between atoms: N2_11  and  C10_12 
REMARK       I    between atoms: C10_12  and  N3_14 
ROOT
HETATM    1  N1  UNL     1      -9.012  -2.451   0.556  1.00  0.00    -0.191 NA
HETATM    2  C1  UNL     1      -7.908  -2.143   0.396  1.00  0.00     0.099 C 
HETATM    3  C2  UNL     1      -6.535  -1.760   0.198  1.00  0.00     0.044 A 
HETATM    4  C3  UNL     1      -5.529  -2.734   0.187  1.00  0.00     0.023 A 
HETATM    5  C4  UNL     1      -4.195  -2.363  -0.006  1.00  0.00     0.013 A 
HETATM    6  C5  UNL     1      -3.851  -1.012  -0.192  1.00  0.00    -0.030 A 
HETATM    7  C21 UNL     1      -4.868  -0.040  -0.181  1.00  0.00     0.013 A 
HETATM    8  C22 UNL     1      -6.201  -0.413   0.013  1.00  0.00     0.023 A 
ENDROOT
BRANCH   6   9
HETATM    9  C6  UNL     1      -2.434  -0.620  -0.395  1.00  0.00    -0.050 C 
HETATM   10  C7  UNL     1      -2.115   0.204  -1.410  1.00  0.00    -0.017 C 
HETATM   11  C8  UNL     1      -0.714   0.664  -1.695  1.00  0.00     0.047 C 
HETATM   12  C9  UNL     1      -0.159   1.530  -0.559  1.00  0.00     0.131 C 
HETATM   13  N2  UNL     1       0.270   0.708   0.581  1.00  0.00    -0.333 N 
HETATM   14  C10 UNL     1       1.613   0.839   1.087  1.00  0.00     0.325 C 
HETATM   15  C19 UNL     1      -0.735  -0.020   1.371  1.00  0.00     0.132 C 
HETATM   16  O1  UNL     1       1.803   0.925   2.330  1.00  0.00    -0.247 OA
HETATM   17  N3  UNL     1       2.740   0.837   0.192  1.00  0.00    -0.299 N 
HETATM   18  C11 UNL     1       2.810   0.018  -1.021  1.00  0.00     0.139 A 
HETATM   19  C18 UNL     1       4.056   1.268   0.512  1.00  0.00     0.048 A 
HETATM   20  C12 UNL     1       4.309  -0.084  -1.392  1.00  0.00     0.064 A 
HETATM   21  C13 UNL     1       4.974   0.769  -0.371  1.00  0.00     0.009 A 
HETATM   22  C14 UNL     1       6.332   1.079  -0.262  1.00  0.00     0.124 A 
HETATM   23  F1  UNL     1       7.233   0.573  -1.140  1.00  0.00    -0.205 F 
HETATM   24  C15 UNL     1       6.744   1.931   0.774  1.00  0.00     0.043 A 
HETATM   25  C16 UNL     1       5.799   2.463   1.671  1.00  0.00     0.005 A 
HETATM   26  C17 UNL     1       4.439   2.138   1.541  1.00  0.00     0.030 A 
HETATM   27  C20 UNL     1      -1.376  -1.146   0.552  1.00  0.00     0.059 C 
ENDBRANCH   6   9
TORSDOF 1
