REMARK  2 active torsions:
REMARK  status: ('A' for Active; 'I' for Inactive)
REMARK    1  A    between atoms: N1_8  and  C8_9 
REMARK    2  A    between atoms: C11_14  and  C12_15 
ROOT
HETATM    1  C1  UNL     1      -1.876   4.800  -0.149  1.00  0.00     0.048 C 
HETATM    2  C2  UNL     1      -2.265   3.351  -0.137  1.00  0.00    -0.060 A 
HETATM    3  C3  UNL     1      -3.580   2.976   0.167  1.00  0.00     0.007 A 
HETATM    4  C4  UNL     1      -3.935   1.627   0.221  1.00  0.00     0.015 A 
HETATM    5  C5  UNL     1      -2.978   0.626  -0.020  1.00  0.00     0.002 A 
HETATM    6  C6  UNL     1      -1.648   1.001  -0.315  1.00  0.00     0.046 A 
HETATM    7  C7  UNL     1      -1.300   2.360  -0.359  1.00  0.00     0.037 A 
HETATM    8  N1  UNL     1      -0.626  -0.000  -0.501  1.00  0.00    -0.346 N 
HETATM    9  C19 UNL     1      -0.667  -0.907  -1.663  1.00  0.00     0.134 C 
HETATM   10  C20 UNL     1      -2.094  -1.259  -2.103  1.00  0.00     0.060 C 
HETATM   11  C21 UNL     1      -2.925  -1.726  -0.934  1.00  0.00    -0.045 A 
HETATM   12  C22 UNL     1      -3.266  -3.084  -0.817  1.00  0.00     0.008 A 
HETATM   13  C23 UNL     1      -4.048  -3.526   0.252  1.00  0.00     0.001 A 
HETATM   14  C24 UNL     1      -4.494  -2.621   1.215  1.00  0.00     0.001 A 
HETATM   15  C25 UNL     1      -4.154  -1.270   1.117  1.00  0.00     0.013 A 
HETATM   16  C26 UNL     1      -3.364  -0.807   0.049  1.00  0.00    -0.017 A 
ENDROOT
BRANCH   8  17
HETATM   17  C8  UNL     1       0.526   0.003   0.372  1.00  0.00     0.042 A 
HETATM   18  C9  UNL     1       0.375   0.271   1.740  1.00  0.00     0.104 A 
HETATM   19  C10 UNL     1       1.494   0.275   2.575  1.00  0.00     0.247 A 
HETATM   20  O1  UNL     1       1.356   0.511   3.805  1.00  0.00    -0.268 OA
HETATM   21  N2  UNL     1       2.731   0.021   2.065  1.00  0.00    -0.323 N 
HETATM   22  C11 UNL     1       2.920  -0.245   0.738  1.00  0.00     0.047 A 
HETATM   23  H8  UNL     1       3.546   0.011   2.719  1.00  0.00     0.169 HD
HETATM   24  C18 UNL     1       1.812  -0.256  -0.128  1.00  0.00     0.060 A 
BRANCH  22  25
HETATM   25  C12 UNL     1       4.283  -0.509   0.214  1.00  0.00    -0.009 A 
HETATM   26  C13 UNL     1       5.380   0.241   0.677  1.00  0.00     0.013 A 
HETATM   27  C14 UNL     1       6.665  -0.007   0.185  1.00  0.00     0.001 A 
HETATM   28  C15 UNL     1       6.870  -1.004  -0.771  1.00  0.00     0.000 A 
HETATM   29  C16 UNL     1       5.789  -1.756  -1.238  1.00  0.00     0.001 A 
HETATM   30  C17 UNL     1       4.502  -1.511  -0.750  1.00  0.00     0.013 A 
ENDBRANCH  22  25
ENDBRANCH   8  17
TORSDOF 2
