REMARK  6 active torsions:
REMARK  status: ('A' for Active; 'I' for Inactive)
REMARK       I    between atoms: C1_2  and  N1_3 
REMARK    1  A    between atoms: C1_2  and  C22_27 
REMARK       I    between atoms: N1_3  and  C2_4 
REMARK    2  A    between atoms: C2_4  and  C3_6 
REMARK    3  A    between atoms: C24_29  and  C45_51 
REMARK    4  A    between atoms: C25_30  and  C28_34 
REMARK    5  A    between atoms: C33_39  and  C34_40 
REMARK    6  A    between atoms: C39_45  and  C40_46 
ROOT
HETATM    1  O1  UNL     1      -0.792   2.005  -1.186  1.00  0.00    -0.267 OA
HETATM    2  C1  UNL     1      -0.770   0.824  -0.742  1.00  0.00     0.261 C 
HETATM    3  N1  UNL     1       0.487   0.180  -0.463  1.00  0.00    -0.288 N 
HETATM    4  C2  UNL     1       1.767   0.794  -0.698  1.00  0.00     0.275 C 
HETATM    5  O2  UNL     1       1.844   1.905  -1.287  1.00  0.00    -0.266 OA
HETATM    6  H1  UNL     1       0.467  -0.718   0.069  1.00  0.00     0.172 HD
ENDROOT
BRANCH   2   7
HETATM    7  C22 UNL     1      -2.050   0.145  -0.446  1.00  0.00     0.071 A 
HETATM    8  C23 UNL     1      -3.118   0.885   0.086  1.00  0.00     0.033 A 
HETATM    9  C24 UNL     1      -4.335   0.266   0.411  1.00  0.00    -0.013 A 
HETATM   10  C25 UNL     1      -4.494  -1.119   0.188  1.00  0.00    -0.011 A 
HETATM   11  C26 UNL     1      -3.430  -1.854  -0.356  1.00  0.00     0.056 A 
HETATM   12  C27 UNL     1      -2.220  -1.232  -0.676  1.00  0.00     0.133 A 
HETATM   13  F1  UNL     1      -1.233  -1.970  -1.244  1.00  0.00    -0.205 F 
BRANCH   9  14
HETATM   14  C45 UNL     1      -5.401   1.077   1.040  1.00  0.00    -0.014 A 
HETATM   15  C40 UNL     1      -6.621   1.337   0.376  1.00  0.00    -0.014 A 
HETATM   16  C41 UNL     1      -7.580   2.159   0.991  1.00  0.00     0.013 A 
HETATM   17  C42 UNL     1      -7.339   2.707   2.253  1.00  0.00     0.001 A 
HETATM   18  C43 UNL     1      -6.135   2.450   2.908  1.00  0.00     0.001 A 
HETATM   19  C44 UNL     1      -5.168   1.644   2.304  1.00  0.00     0.013 A 
BRANCH  15  20
HETATM   20  C39 UNL     1      -6.898   0.797  -0.974  1.00  0.00    -0.014 A 
HETATM   21  C34 UNL     1      -7.064  -0.590  -1.194  1.00  0.00    -0.014 A 
HETATM   22  C35 UNL     1      -7.379  -1.052  -2.483  1.00  0.00     0.013 A 
HETATM   23  C36 UNL     1      -7.516  -0.151  -3.542  1.00  0.00     0.001 A 
HETATM   24  C37 UNL     1      -7.351   1.217  -3.324  1.00  0.00     0.001 A 
HETATM   25  C38 UNL     1      -7.049   1.690  -2.046  1.00  0.00     0.013 A 
BRANCH  21  26
HETATM   26  C33 UNL     1      -6.967  -1.566  -0.085  1.00  0.00    -0.014 A 
HETATM   27  C28 UNL     1      -5.739  -1.825   0.567  1.00  0.00    -0.014 A 
HETATM   28  C29 UNL     1      -5.688  -2.796   1.582  1.00  0.00     0.013 A 
HETATM   29  C30 UNL     1      -6.840  -3.489   1.957  1.00  0.00     0.001 A 
HETATM   30  C31 UNL     1      -8.052  -3.230   1.317  1.00  0.00     0.001 A 
HETATM   31  C32 UNL     1      -8.116  -2.278   0.297  1.00  0.00     0.013 A 
ENDBRANCH  21  26
ENDBRANCH  15  20
ENDBRANCH   9  14
ENDBRANCH   2   7
BRANCH   4  32
HETATM   32  C3  UNL     1       3.006   0.142  -0.226  1.00  0.00     0.104 A 
HETATM   33  C4  UNL     1       4.054   0.921   0.275  1.00  0.00     0.048 A 
HETATM   34  C5  UNL     1       5.215   0.309   0.762  1.00  0.00    -0.011 A 
HETATM   35  C6  UNL     1       5.327  -1.100   0.735  1.00  0.00     0.021 A 
HETATM   36  C21 UNL     1       6.319   1.178   1.230  1.00  0.00    -0.014 A 
HETATM   37  C7  UNL     1       4.262  -1.843   0.180  1.00  0.00     0.253 A 
HETATM   38  C8  UNL     1       6.518  -1.810   1.371  1.00  0.00     0.050 C 
HETATM   39  O3  UNL     1       4.335  -3.100   0.105  1.00  0.00    -0.268 OA
HETATM   40  N2  UNL     1       3.141  -1.214  -0.276  1.00  0.00    -0.319 N 
HETATM   41  H3  UNL     1       2.376  -1.794  -0.691  1.00  0.00     0.169 HD
HETATM   42  C9  UNL     1       7.890  -1.603   0.684  1.00  0.00     0.044 C 
HETATM   43  C10 UNL     1       7.838  -0.908  -0.660  1.00  0.00    -0.047 A 
HETATM   44  C11 UNL     1       7.943  -1.661  -1.842  1.00  0.00     0.008 A 
HETATM   45  C15 UNL     1       7.720   0.500  -0.743  1.00  0.00    -0.019 A 
HETATM   46  C12 UNL     1       7.958  -1.023  -3.084  1.00  0.00     0.001 A 
HETATM   47  C13 UNL     1       7.868   0.368  -3.163  1.00  0.00     0.001 A 
HETATM   48  C14 UNL     1       7.746   1.128  -1.997  1.00  0.00     0.013 A 
HETATM   49  C16 UNL     1       7.505   1.313   0.474  1.00  0.00    -0.014 A 
HETATM   50  C17 UNL     1       8.497   2.212   0.892  1.00  0.00     0.013 A 
HETATM   51  C18 UNL     1       8.319   2.966   2.055  1.00  0.00     0.001 A 
HETATM   52  C19 UNL     1       7.145   2.836   2.802  1.00  0.00     0.001 A 
HETATM   53  C20 UNL     1       6.146   1.953   2.389  1.00  0.00     0.013 A 
ENDBRANCH   4  32
TORSDOF 6
