REMARK  6 active torsions:
REMARK  status: ('A' for Active; 'I' for Inactive)
REMARK       I    between atoms: C1_2  and  N1_3 
REMARK    1  A    between atoms: C1_2  and  C22_27 
REMARK       I    between atoms: N1_3  and  C2_4 
REMARK    2  A    between atoms: C2_4  and  C3_6 
REMARK    3  A    between atoms: C24_29  and  C45_50 
REMARK    4  A    between atoms: C25_30  and  C28_33 
REMARK    5  A    between atoms: C33_38  and  C34_39 
REMARK    6  A    between atoms: C39_44  and  C40_45 
ROOT
HETATM    1  O1  UNL     1       1.006  -1.621  -2.092  1.00  0.00    -0.267 OA
HETATM    2  C1  UNL     1       1.019  -0.760  -1.169  1.00  0.00     0.258 C 
HETATM    3  N1  UNL     1      -0.155   0.032  -0.920  1.00  0.00    -0.288 N 
HETATM    4  C2  UNL     1      -1.486  -0.445  -1.192  1.00  0.00     0.275 C 
HETATM    5  O2  UNL     1      -1.644  -1.513  -1.846  1.00  0.00    -0.266 OA
HETATM    6  H1  UNL     1      -0.021   0.999  -0.555  1.00  0.00     0.172 HD
ENDROOT
BRANCH   2   7
HETATM    7  C22 UNL     1       2.249  -0.582  -0.356  1.00  0.00     0.033 A 
HETATM    8  C23 UNL     1       3.461  -1.158  -0.777  1.00  0.00     0.030 A 
HETATM    9  C24 UNL     1       4.626  -1.043  -0.001  1.00  0.00    -0.013 A 
HETATM   10  C25 UNL     1       4.578  -0.348   1.226  1.00  0.00    -0.014 A 
HETATM   11  C26 UNL     1       3.370   0.226   1.647  1.00  0.00     0.014 A 
HETATM   12  C27 UNL     1       2.218   0.109   0.868  1.00  0.00     0.018 A 
BRANCH   9  13
HETATM   13  C45 UNL     1       5.863  -1.713  -0.464  1.00  0.00    -0.014 A 
HETATM   14  C40 UNL     1       7.013  -0.976  -0.832  1.00  0.00    -0.014 A 
HETATM   15  C41 UNL     1       8.148  -1.656  -1.304  1.00  0.00     0.013 A 
HETATM   16  C42 UNL     1       8.148  -3.049  -1.406  1.00  0.00     0.001 A 
HETATM   17  C43 UNL     1       7.014  -3.777  -1.046  1.00  0.00     0.001 A 
HETATM   18  C44 UNL     1       5.874  -3.114  -0.584  1.00  0.00     0.013 A 
BRANCH  14  19
HETATM   19  C39 UNL     1       7.036   0.503  -0.772  1.00  0.00    -0.014 A 
HETATM   20  C34 UNL     1       6.990   1.192   0.461  1.00  0.00    -0.014 A 
HETATM   21  C35 UNL     1       7.065   2.595   0.471  1.00  0.00     0.013 A 
HETATM   22  C36 UNL     1       7.170   3.307  -0.726  1.00  0.00     0.001 A 
HETATM   23  C37 UNL     1       7.215   2.626  -1.944  1.00  0.00     0.001 A 
HETATM   24  C38 UNL     1       7.153   1.231  -1.967  1.00  0.00     0.013 A 
BRANCH  20  25
HETATM   25  C33 UNL     1       6.912   0.468   1.749  1.00  0.00    -0.014 A 
HETATM   26  C28 UNL     1       5.759  -0.266   2.115  1.00  0.00    -0.014 A 
HETATM   27  C29 UNL     1       5.713  -0.901   3.367  1.00  0.00     0.013 A 
HETATM   28  C30 UNL     1       6.800  -0.820   4.241  1.00  0.00     0.001 A 
HETATM   29  C31 UNL     1       7.938  -0.097   3.880  1.00  0.00     0.001 A 
HETATM   30  C32 UNL     1       7.993   0.547   2.642  1.00  0.00     0.013 A 
ENDBRANCH  20  25
ENDBRANCH  14  19
ENDBRANCH   9  13
ENDBRANCH   2   7
BRANCH   4  31
HETATM   31  C3  UNL     1      -2.686   0.286  -0.702  1.00  0.00     0.104 A 
HETATM   32  C4  UNL     1      -3.940   0.009  -1.264  1.00  0.00     0.048 A 
HETATM   33  C5  UNL     1      -5.105   0.647  -0.795  1.00  0.00    -0.011 A 
HETATM   34  C6  UNL     1      -4.980   1.559   0.273  1.00  0.00     0.021 A 
HETATM   35  C21 UNL     1      -6.410   0.305  -1.456  1.00  0.00    -0.014 C 
HETATM   36  C7  UNL     1      -3.702   1.807   0.822  1.00  0.00     0.253 A 
HETATM   37  C8  UNL     1      -6.205   2.091   0.953  1.00  0.00     0.050 C 
HETATM   38  O3  UNL     1      -3.570   2.595   1.799  1.00  0.00    -0.268 OA
HETATM   39  N2  UNL     1      -2.601   1.181   0.324  1.00  0.00    -0.319 N 
HETATM   40  H3  UNL     1      -1.685   1.364   0.792  1.00  0.00     0.169 HD
HETATM   41  C9  UNL     1      -6.817   0.969   1.806  1.00  0.00     0.044 C 
HETATM   42  C10 UNL     1      -8.196   0.655   1.321  1.00  0.00    -0.047 A 
HETATM   43  C11 UNL     1      -9.285   1.117   2.088  1.00  0.00     0.008 A 
HETATM   44  C15 UNL     1      -8.429  -0.013   0.090  1.00  0.00    -0.019 A 
HETATM   45  C12 UNL     1     -10.595   0.917   1.662  1.00  0.00     0.001 A 
HETATM   46  C13 UNL     1     -10.838   0.278   0.453  1.00  0.00     0.001 A 
HETATM   47  C14 UNL     1      -9.773  -0.171  -0.328  1.00  0.00     0.013 A 
HETATM   48  C16 UNL     1      -7.346  -0.556  -0.812  1.00  0.00    -0.014 C 
HETATM   49  C17 UNL     1      -7.668  -1.762  -1.471  1.00  0.00     0.013 C 
HETATM   50  C18 UNL     1      -7.422  -1.908  -2.838  1.00  0.00     0.001 C 
HETATM   51  C19 UNL     1      -6.841  -0.863  -3.550  1.00  0.00     0.001 C 
HETATM   52  C20 UNL     1      -6.341   0.246  -2.865  1.00  0.00     0.013 C 
ENDBRANCH   4  31
TORSDOF 6
