REMARK  5 active torsions:
REMARK  status: ('A' for Active; 'I' for Inactive)
REMARK    1  A    between atoms: O1_2  and  C2_3 
REMARK    2  A    between atoms: C5_6  and  C6_7 
REMARK    3  A    between atoms: C6_7  and  N1_8 
REMARK    4  A    between atoms: C13_19  and  O3_20 
REMARK    5  A    between atoms: O3_20  and  C14_21 
ROOT
HETATM    1  C2  UNL     1      -2.632  -0.816  -1.268  1.00  0.00     0.101 A 
HETATM    2  C3  UNL     1      -1.589  -1.687  -1.634  1.00  0.00     0.040 A 
HETATM    3  C4  UNL     1      -0.499  -1.881  -0.784  1.00  0.00     0.012 A 
HETATM    4  C5  UNL     1      -0.427  -1.209   0.444  1.00  0.00    -0.027 A 
HETATM    5  C12 UNL     1      -1.473  -0.351   0.817  1.00  0.00     0.048 A 
HETATM    6  C13 UNL     1      -2.575  -0.147  -0.036  1.00  0.00     0.108 A 
ENDROOT
BRANCH   4   7
HETATM    7  C6  UNL     1       0.767  -1.408   1.358  1.00  0.00     0.311 C 
BRANCH   7   8
HETATM    8  N1  UNL     1       1.863  -0.438   1.120  1.00  0.00     0.100 N 
HETATM    9  C7  UNL     1       1.450   0.948   1.427  1.00  0.00     0.292 C 
HETATM   10  C8  UNL     1       2.661   1.824   1.755  1.00  0.00     0.153 C 
HETATM   11  N2  UNL     1       3.302   2.311   0.538  1.00  0.00    -0.354 N 
HETATM   12  C9  UNL     1       3.911   1.453  -0.435  1.00  0.00     0.292 C 
HETATM   13  H12 UNL     1       3.337   3.343   0.378  1.00  0.00     0.162 HD
HETATM   14  O2  UNL     1       4.482   1.971  -1.432  1.00  0.00    -0.267 OA
HETATM   15  C10 UNL     1       3.883  -0.047  -0.298  1.00  0.00     0.348 C 
HETATM   16  F1  UNL     1       4.512  -0.615  -1.396  1.00  0.00    -0.194 F 
HETATM   17  F2  UNL     1       4.584  -0.425   0.834  1.00  0.00    -0.194 F 
HETATM   18  C11 UNL     1       2.443  -0.579  -0.235  1.00  0.00     0.362 C 
ENDBRANCH   7   8
ENDBRANCH   4   7
BRANCH   6  19
HETATM   19  O3  UNL     1      -3.632   0.715   0.302  1.00  0.00    -0.287 OA
BRANCH  19  20
HETATM   20  C14 UNL     1      -3.728   1.451   1.518  1.00  0.00     0.505 C 
HETATM   21  F3  UNL     1      -4.843   2.265   1.466  1.00  0.00    -0.184 F 
HETATM   22  F4  UNL     1      -3.855   0.583   2.587  1.00  0.00    -0.184 F 
ENDBRANCH  19  20
ENDBRANCH   6  19
BRANCH   1  23
HETATM   23  O1  UNL     1      -3.741  -0.592  -2.099  1.00  0.00    -0.353 OA
HETATM   24  C1  UNL     1      -3.931  -1.200  -3.372  1.00  0.00     0.210 C 
ENDBRANCH   1  23
TORSDOF 5
