REMARK  1 active torsions:
REMARK  status: ('A' for Active; 'I' for Inactive)
REMARK    1  A    between atoms: C1_2  and  C2_3 
REMARK       I    between atoms: C1_2  and  N2_13 
ROOT
HETATM    1  O1  UNL     1       0.049   1.520   1.883  1.00  0.00    -0.267 OA
HETATM    2  C1  UNL     1       0.308   0.637   1.020  1.00  0.00     0.259 C 
HETATM    3  N2  UNL     1      -0.631   0.376  -0.045  1.00  0.00    -0.312 N 
HETATM    4  C11 UNL     1      -0.594  -0.868  -0.826  1.00  0.00     0.133 C 
HETATM    5  C12 UNL     1      -1.220  -2.033  -0.049  1.00  0.00     0.035 C 
HETATM    6  C13 UNL     1      -2.750  -1.959   0.005  1.00  0.00     0.147 C 
HETATM    7  S1  UNL     1      -3.331  -0.594   1.000  1.00  0.00     0.177 S 
HETATM    8  O2  UNL     1      -2.635  -0.586   2.332  1.00  0.00    -0.223 OA
HETATM    9  O3  UNL     1      -4.806  -0.773   1.227  1.00  0.00    -0.223 OA
HETATM   10  C14 UNL     1      -3.031   0.935   0.171  1.00  0.00     0.086 A 
HETATM   11  C15 UNL     1      -4.084   1.838  -0.042  1.00  0.00     0.026 A 
HETATM   12  C16 UNL     1      -3.845   3.069  -0.660  1.00  0.00     0.002 A 
HETATM   13  C17 UNL     1      -2.553   3.410  -1.064  1.00  0.00     0.002 A 
HETATM   14  C18 UNL     1      -1.497   2.520  -0.855  1.00  0.00     0.031 A 
HETATM   15  C19 UNL     1      -1.729   1.279  -0.245  1.00  0.00     0.059 A 
ENDROOT
BRANCH   2  16
HETATM   16  C2  UNL     1       1.563  -0.130   1.154  1.00  0.00     0.045 A 
HETATM   17  C3  UNL     1       1.712  -0.968   2.270  1.00  0.00     0.018 A 
HETATM   18  C4  UNL     1       2.868  -1.731   2.437  1.00  0.00     0.002 A 
HETATM   19  C5  UNL     1       3.899  -1.661   1.500  1.00  0.00     0.012 A 
HETATM   20  C6  UNL     1       3.785  -0.815   0.388  1.00  0.00    -0.022 A 
HETATM   21  C7  UNL     1       4.825  -0.731  -0.547  1.00  0.00     0.031 A 
HETATM   22  C10 UNL     1       2.615  -0.034   0.209  1.00  0.00     0.007 A 
HETATM   23  C8  UNL     1       4.701   0.128  -1.638  1.00  0.00     0.117 A 
HETATM   24  N1  UNL     1       3.581   0.880  -1.790  1.00  0.00    -0.272 NA
HETATM   25  C9  UNL     1       2.550   0.824  -0.906  1.00  0.00     0.129 A 
ENDBRANCH   2  16
TORSDOF 1
