REMARK  3 active torsions:
REMARK  status: ('A' for Active; 'I' for Inactive)
REMARK    1  A    between atoms: C2_2  and  N1_3 
REMARK    2  A    between atoms: C2_2  and  C19_22 
REMARK       I    between atoms: N1_3  and  C3_4 
REMARK    3  A    between atoms: C3_4  and  C4_6 
ROOT
HETATM    1  N1  UNL     1      -1.047   1.577   0.008  1.00  0.00    -0.349 N 
HETATM    2  C3  UNL     1       0.161   2.353  -0.013  1.00  0.00     0.252 C 
HETATM    3  O1  UNL     1       0.205   3.477   0.556  1.00  0.00    -0.268 OA
HETATM    4  H5  UNL     1      -1.093   0.733  -0.607  1.00  0.00     0.163 HD
ENDROOT
BRANCH   2   5
HETATM    5  C4  UNL     1       1.339   1.875  -0.759  1.00  0.00     0.039 A 
HETATM    6  C5  UNL     1       1.791   2.654  -1.834  1.00  0.00     0.017 A 
HETATM    7  C6  UNL     1       2.878   2.245  -2.602  1.00  0.00     0.002 A 
HETATM    8  C7  UNL     1       3.546   1.062  -2.296  1.00  0.00     0.013 A 
HETATM    9  C8  UNL     1       3.138   0.274  -1.209  1.00  0.00    -0.018 A 
HETATM   10  C9  UNL     1       2.014   0.668  -0.433  1.00  0.00    -0.031 A 
HETATM   11  C18 UNL     1       3.937  -0.929  -0.848  1.00  0.00    -0.016 A 
HETATM   12  C10 UNL     1       1.597  -0.196   0.748  1.00  0.00     0.041 C 
HETATM   13  C11 UNL     1       2.567  -0.081   1.938  1.00  0.00     0.009 C 
HETATM   14  C12 UNL     1       4.059  -0.125   1.560  1.00  0.00     0.040 C 
HETATM   15  C13 UNL     1       4.356  -1.147   0.487  1.00  0.00    -0.047 A 
HETATM   16  C14 UNL     1       5.063  -2.317   0.809  1.00  0.00     0.011 A 
HETATM   17  C15 UNL     1       5.371  -3.252  -0.182  1.00  0.00     0.043 A 
HETATM   18  C16 UNL     1       4.975  -3.030  -1.502  1.00  0.00     0.117 A 
HETATM   19  F1  UNL     1       5.276  -3.940  -2.461  1.00  0.00    -0.206 F 
HETATM   20  C17 UNL     1       4.261  -1.876  -1.835  1.00  0.00     0.055 A 
ENDBRANCH   2   5
BRANCH   1  21
HETATM   21  C2  UNL     1      -2.195   1.935   0.848  1.00  0.00     0.114 C 
HETATM   22  C1  UNL     1      -1.879   1.674   2.326  1.00  0.00     0.037 C 
BRANCH  21  23
HETATM   23  C19 UNL     1      -3.430   1.164   0.423  1.00  0.00    -0.035 A 
HETATM   24  C20 UNL     1      -4.595   1.861   0.011  1.00  0.00     0.010 A 
HETATM   25  C21 UNL     1      -5.748   1.162  -0.381  1.00  0.00     0.018 A 
HETATM   26  C22 UNL     1      -5.712  -0.229  -0.352  1.00  0.00     0.040 A 
HETATM   27  C23 UNL     1      -4.593  -0.924   0.046  1.00  0.00    -0.024 A 
HETATM   28  C26 UNL     1      -6.720  -1.201  -0.691  1.00  0.00     0.252 A 
HETATM   29  C24 UNL     1      -3.437  -0.251   0.439  1.00  0.00     0.019 A 
HETATM   30  C25 UNL     1      -4.827  -2.407  -0.018  1.00  0.00     0.162 A 
HETATM   31  N2  UNL     1      -6.207  -2.513  -0.497  1.00  0.00    -0.353 N 
HETATM   32  H23 UNL     1      -6.728  -3.401  -0.667  1.00  0.00     0.163 HD
HETATM   33  O2  UNL     1      -7.884  -0.950  -1.099  1.00  0.00    -0.268 OA
ENDBRANCH  21  23
ENDBRANCH   1  21
TORSDOF 3
