REMARK  3 active torsions:
REMARK  status: ('A' for Active; 'I' for Inactive)
REMARK    1  A    between atoms: C10_10  and  N1_11 
REMARK       I    between atoms: N1_11  and  C11_12 
REMARK    2  A    between atoms: C11_12  and  C12_14 
REMARK    3  A    between atoms: C17_19  and  C18_20 
ROOT
HETATM    1  C1  UNL     1       6.031   2.557   1.862  1.00  0.00     0.048 C 
HETATM    2  C2  UNL     1       5.184   1.376   1.486  1.00  0.00    -0.061 A 
HETATM    3  C3  UNL     1       5.713   0.368   0.669  1.00  0.00     0.007 A 
HETATM    4  C4  UNL     1       4.919  -0.704   0.263  1.00  0.00     0.013 A 
HETATM    5  C5  UNL     1       3.575  -0.786   0.665  1.00  0.00    -0.018 A 
HETATM    6  C6  UNL     1       3.040   0.223   1.498  1.00  0.00    -0.046 A 
HETATM    7  C7  UNL     1       3.843   1.304   1.889  1.00  0.00     0.014 A 
HETATM    8  C8  UNL     1       1.606   0.146   1.959  1.00  0.00     0.042 C 
HETATM    9  C9  UNL     1       0.615   0.475   0.829  1.00  0.00     0.034 C 
HETATM   10  C10 UNL     1       0.927  -0.209  -0.532  1.00  0.00     0.119 C 
HETATM   11  C24 UNL     1       1.439  -1.650  -0.411  1.00  0.00    -0.022 A 
HETATM   12  C25 UNL     1       0.722  -2.746  -0.932  1.00  0.00     0.029 A 
HETATM   13  C26 UNL     1       1.241  -4.035  -0.823  1.00  0.00     0.117 A 
HETATM   14  N2  UNL     1       2.447  -4.243  -0.242  1.00  0.00    -0.272 NA
HETATM   15  C27 UNL     1       3.194  -3.215   0.236  1.00  0.00     0.129 A 
HETATM   16  C28 UNL     1       2.721  -1.895   0.159  1.00  0.00     0.001 A 
ENDROOT
BRANCH  10  17
HETATM   17  N1  UNL     1      -0.193  -0.057  -1.475  1.00  0.00    -0.348 N 
HETATM   18  C11 UNL     1      -1.563  -0.418  -1.210  1.00  0.00     0.253 C 
HETATM   19  O1  UNL     1      -1.857  -1.095  -0.187  1.00  0.00    -0.268 OA
HETATM   20  H12 UNL     1       0.019   0.446  -2.366  1.00  0.00     0.163 HD
BRANCH  18  21
HETATM   21  C12 UNL     1      -2.641  -0.019  -2.146  1.00  0.00     0.043 A 
HETATM   22  C13 UNL     1      -2.419  -0.137  -3.529  1.00  0.00     0.018 A 
HETATM   23  C14 UNL     1      -3.430   0.175  -4.439  1.00  0.00     0.001 A 
HETATM   24  C15 UNL     1      -4.681   0.593  -3.986  1.00  0.00     0.001 A 
HETATM   25  C16 UNL     1      -4.921   0.715  -2.617  1.00  0.00     0.013 A 
HETATM   26  C17 UNL     1      -3.908   0.427  -1.684  1.00  0.00    -0.010 A 
BRANCH  26  27
HETATM   27  C18 UNL     1      -4.181   0.661  -0.245  1.00  0.00    -0.025 A 
HETATM   28  C19 UNL     1      -3.373   1.546   0.495  1.00  0.00     0.012 A 
HETATM   29  C20 UNL     1      -3.623   1.761   1.854  1.00  0.00     0.001 A 
HETATM   30  C21 UNL     1      -4.685   1.100   2.481  1.00  0.00     0.000 A 
HETATM   31  C22 UNL     1      -5.498   0.226   1.750  1.00  0.00     0.001 A 
HETATM   32  C23 UNL     1      -5.255   0.011   0.390  1.00  0.00     0.012 A 
ENDBRANCH  26  27
ENDBRANCH  18  21
ENDBRANCH  10  17
TORSDOF 3
