REMARK  3 active torsions:
REMARK  status: ('A' for Active; 'I' for Inactive)
REMARK       I    between atoms: C1_2  and  N1_3 
REMARK    1  A    between atoms: C1_2  and  C16_21 
REMARK       I    between atoms: N1_3  and  C2_4 
REMARK    2  A    between atoms: C2_4  and  C3_6 
REMARK    3  A    between atoms: C22_27  and  C23_28 
ROOT
HETATM    1  C16 UNL     1      -0.417  -0.396  -0.424  1.00  0.00     0.033 A 
HETATM    2  C17 UNL     1      -0.209   0.829   0.215  1.00  0.00     0.018 A 
HETATM    3  C18 UNL     1      -1.272   1.509   0.800  1.00  0.00     0.014 A 
HETATM    4  C19 UNL     1      -2.586   0.993   0.772  1.00  0.00    -0.018 A 
HETATM    5  C20 UNL     1      -2.819  -0.223   0.075  1.00  0.00    -0.037 A 
HETATM    6  C21 UNL     1      -1.723  -0.901  -0.508  1.00  0.00     0.025 A 
HETATM    7  C22 UNL     1      -4.242  -0.664  -0.193  1.00  0.00     0.057 C 
HETATM    8  C29 UNL     1      -4.872   0.310  -1.227  1.00  0.00     0.053 C 
HETATM    9  C30 UNL     1      -6.065   0.979  -0.625  1.00  0.00    -0.046 A 
HETATM   10  C31 UNL     1      -7.342   0.506  -0.985  1.00  0.00     0.008 A 
HETATM   11  C32 UNL     1      -8.486   1.006  -0.371  1.00  0.00     0.001 A 
HETATM   12  C33 UNL     1      -8.373   1.964   0.629  1.00  0.00     0.001 A 
HETATM   13  C34 UNL     1      -7.116   2.434   1.008  1.00  0.00     0.013 A 
HETATM   14  C35 UNL     1      -5.933   1.969   0.382  1.00  0.00    -0.019 A 
HETATM   15  C36 UNL     1      -4.617   2.551   0.837  1.00  0.00    -0.014 C 
HETATM   16  C37 UNL     1      -4.661   3.927   1.151  1.00  0.00     0.013 C 
HETATM   17  C38 UNL     1      -4.087   4.405   2.329  1.00  0.00     0.001 C 
HETATM   18  C39 UNL     1      -3.449   3.519   3.194  1.00  0.00     0.001 C 
HETATM   19  C40 UNL     1      -3.234   2.200   2.797  1.00  0.00     0.013 C 
HETATM   20  C41 UNL     1      -3.644   1.759   1.520  1.00  0.00    -0.014 C 
ENDROOT
BRANCH   1  21
HETATM   21  C1  UNL     1       0.710  -1.127  -1.056  1.00  0.00     0.258 C 
HETATM   22  O1  UNL     1       0.471  -1.929  -2.000  1.00  0.00    -0.267 OA
HETATM   23  N1  UNL     1       2.061  -0.940  -0.596  1.00  0.00    -0.289 N 
HETATM   24  C2  UNL     1       3.219  -1.421  -1.303  1.00  0.00     0.258 C 
HETATM   25  H1  UNL     1       2.207  -0.474   0.326  1.00  0.00     0.172 HD
HETATM   26  O2  UNL     1       3.086  -2.255  -2.240  1.00  0.00    -0.267 OA
BRANCH  24  27
HETATM   27  C3  UNL     1       4.580  -0.960  -0.935  1.00  0.00     0.034 A 
HETATM   28  C4  UNL     1       4.778   0.279  -0.310  1.00  0.00     0.018 A 
HETATM   29  C5  UNL     1       6.062   0.715   0.023  1.00  0.00     0.015 A 
HETATM   30  C6  UNL     1       7.198  -0.077  -0.265  1.00  0.00     0.002 A 
HETATM   31  C7  UNL     1       6.996  -1.325  -0.909  1.00  0.00     0.047 A 
HETATM   32  C15 UNL     1       8.530   0.320   0.053  1.00  0.00    -0.008 A 
HETATM   33  C8  UNL     1       5.698  -1.750  -1.238  1.00  0.00     0.047 A 
HETATM   34  N2  UNL     1       8.057  -2.122  -1.216  1.00  0.00    -0.322 N 
HETATM   35  C9  UNL     1       9.336  -1.768  -0.928  1.00  0.00     0.257 A 
HETATM   36  H5  UNL     1       7.893  -3.040  -1.691  1.00  0.00     0.169 HD
HETATM   37  O3  UNL     1      10.275  -2.550  -1.241  1.00  0.00    -0.267 OA
HETATM   38  C10 UNL     1       9.606  -0.545  -0.289  1.00  0.00     0.043 A 
HETATM   39  C11 UNL     1      10.931  -0.173   0.013  1.00  0.00     0.018 A 
HETATM   40  C12 UNL     1      11.200   1.038   0.646  1.00  0.00     0.001 A 
HETATM   41  C13 UNL     1      10.156   1.891   0.989  1.00  0.00     0.001 A 
HETATM   42  C14 UNL     1       8.835   1.543   0.700  1.00  0.00     0.013 A 
ENDBRANCH  24  27
ENDBRANCH   1  21
BRANCH   7  43
HETATM   43  C23 UNL     1      -4.405  -2.137  -0.571  1.00  0.00    -0.049 A 
HETATM   44  C24 UNL     1      -4.773  -3.070   0.419  1.00  0.00     0.008 A 
HETATM   45  C25 UNL     1      -4.921  -4.423   0.105  1.00  0.00     0.001 A 
HETATM   46  C26 UNL     1      -4.693  -4.869  -1.198  1.00  0.00     0.000 A 
HETATM   47  C27 UNL     1      -4.312  -3.963  -2.189  1.00  0.00     0.001 A 
HETATM   48  C28 UNL     1      -4.164  -2.607  -1.881  1.00  0.00     0.008 A 
ENDBRANCH   7  43
TORSDOF 3
