REMARK  5 active torsions:
REMARK  status: ('A' for Active; 'I' for Inactive)
REMARK    1  A    between atoms: C4_5  and  C5_6 
REMARK       I    between atoms: C5_6  and  N1_8 
REMARK    2  A    between atoms: N1_8  and  C6_9 
REMARK    3  A    between atoms: C6_9  and  C7_10 
REMARK    4  A    between atoms: C7_10  and  C8_11 
REMARK    5  A    between atoms: C8_11  and  C9_12 
ROOT
HETATM    1  C6  UNL     1       0.051  -1.185  -0.956  1.00  0.00     0.132 C 
ENDROOT
BRANCH   1   2
HETATM    2  N1  UNL     1       0.847  -0.240  -0.170  1.00  0.00    -0.360 N 
HETATM    3  C5  UNL     1       1.655   0.762  -0.811  1.00  0.00     0.227 C 
HETATM    4  O2  UNL     1       1.677   0.825  -2.070  1.00  0.00    -0.273 OA
HETATM    5  H5  UNL     1       0.817  -0.297   0.871  1.00  0.00     0.162 HD
BRANCH   3   6
HETATM    6  C4  UNL     1       2.458   1.779  -0.021  1.00  0.00     0.052 A 
HETATM    7  C3  UNL     1       3.508   2.654  -0.734  1.00  0.00     0.027 A 
HETATM    8  C2  UNL     1       4.711   2.786   0.202  1.00  0.00     0.080 A 
HETATM    9  C1  UNL     1       4.333   2.010   1.409  1.00  0.00     0.132 A 
HETATM   10  O1  UNL     1       5.061   1.907   2.383  1.00  0.00    -0.298 OA
HETATM   11  C19 UNL     1       2.993   1.379   1.345  1.00  0.00     0.074 A 
HETATM   12  C18 UNL     1       1.816   2.350   1.239  1.00  0.00     0.033 A 
ENDBRANCH   3   6
ENDBRANCH   1   2
BRANCH   1  13
HETATM   13  C7  UNL     1      -0.887  -2.037  -0.061  1.00  0.00    -0.020 A 
HETATM   14  C15 UNL     1      -1.516  -3.213  -0.827  1.00  0.00     0.011 A 
HETATM   15  C16 UNL     1      -0.730  -4.197   0.028  1.00  0.00     0.002 A 
HETATM   16  C17 UNL     1      -0.112  -3.044   0.805  1.00  0.00     0.011 A 
BRANCH  13  17
HETATM   17  C8  UNL     1      -1.918  -1.217   0.767  1.00  0.00     0.049 C 
BRANCH  17  18
HETATM   18  C9  UNL     1      -2.729  -0.258  -0.073  1.00  0.00    -0.057 A 
HETATM   19  C10 UNL     1      -2.298   1.070  -0.246  1.00  0.00     0.007 A 
HETATM   20  C11 UNL     1      -3.033   1.953  -1.042  1.00  0.00     0.001 A 
HETATM   21  C12 UNL     1      -4.205   1.522  -1.668  1.00  0.00     0.000 A 
HETATM   22  C13 UNL     1      -4.646   0.207  -1.496  1.00  0.00     0.001 A 
HETATM   23  C14 UNL     1      -3.913  -0.680  -0.701  1.00  0.00     0.007 A 
ENDBRANCH  17  18
ENDBRANCH  13  17
ENDBRANCH   1  13
TORSDOF 5
