REMARK  2 active torsions:
REMARK  status: ('A' for Active; 'I' for Inactive)
REMARK       I    between atoms: C2_2  and  N1_4 
REMARK    1  A    between atoms: C12_14  and  N2_15 
REMARK       I    between atoms: N2_15  and  C13_16 
REMARK       I    between atoms: C13_16  and  N3_18 
REMARK    2  A    between atoms: N3_18  and  C14_19 
ROOT
HETATM    1  N2  UNL     1      -0.064   0.912  -0.702  1.00  0.00    -0.308 N 
HETATM    2  C13 UNL     1       1.193   0.253  -0.910  1.00  0.00     0.321 C 
HETATM    3  O2  UNL     1       1.253  -0.788  -1.621  1.00  0.00    -0.247 OA
HETATM    4  N3  UNL     1       2.378   0.768  -0.287  1.00  0.00    -0.337 N 
HETATM    5  H15 UNL     1      -0.094   1.718  -0.039  1.00  0.00     0.170 HD
HETATM    6  H16 UNL     1       2.275   1.584   0.359  1.00  0.00     0.164 HD
ENDROOT
BRANCH   1   7
HETATM    7  C12 UNL     1      -1.271   0.509  -1.370  1.00  0.00     0.044 A 
HETATM    8  C7  UNL     1      -2.460   0.235  -0.638  1.00  0.00    -0.004 A 
HETATM    9  C6  UNL     1      -2.403   0.315   0.889  1.00  0.00     0.043 C 
HETATM   10  C8  UNL     1      -3.610  -0.205  -1.356  1.00  0.00     0.045 A 
HETATM   11  C5  UNL     1      -3.732   0.345   1.663  1.00  0.00     0.006 C 
HETATM   12  C4  UNL     1      -4.781   1.245   0.996  1.00  0.00     0.021 C 
HETATM   13  C3  UNL     1      -5.623   0.458  -0.014  1.00  0.00     0.132 C 
HETATM   14  N1  UNL     1      -4.830  -0.579  -0.693  1.00  0.00    -0.318 N 
HETATM   15  C2  UNL     1      -5.321  -1.929  -0.856  1.00  0.00     0.220 C 
HETATM   16  C1  UNL     1      -6.761  -2.282  -0.638  1.00  0.00     0.117 C 
HETATM   17  O1  UNL     1      -4.519  -2.850  -1.175  1.00  0.00    -0.273 OA
HETATM   18  C9  UNL     1      -3.566  -0.301  -2.756  1.00  0.00     0.030 A 
HETATM   19  C10 UNL     1      -2.405   0.006  -3.456  1.00  0.00     0.005 A 
HETATM   20  C11 UNL     1      -1.265   0.403  -2.769  1.00  0.00     0.030 A 
ENDBRANCH   1   7
BRANCH   4  21
HETATM   21  C14 UNL     1       3.672   0.081  -0.360  1.00  0.00     0.104 C 
HETATM   22  C15 UNL     1       3.751  -1.015   0.727  1.00  0.00     0.027 C 
HETATM   23  C16 UNL     1       3.808  -0.496   2.179  1.00  0.00     0.011 C 
HETATM   24  C17 UNL     1       4.996   0.429   2.519  1.00  0.00     0.103 C 
HETATM   25  C18 UNL     1       6.180   0.246   1.606  1.00  0.00     0.219 C 
HETATM   26  O3  UNL     1       7.265  -0.186   2.083  1.00  0.00    -0.273 OA
HETATM   27  N4  UNL     1       6.072   0.538   0.197  1.00  0.00    -0.355 N 
HETATM   28  C19 UNL     1       7.210   0.273  -0.687  1.00  0.00     0.152 C 
HETATM   29  C20 UNL     1       4.828   1.113  -0.336  1.00  0.00     0.150 C 
ENDBRANCH   4  21
TORSDOF 2
