REMARK  4 active torsions:
REMARK  status: ('A' for Active; 'I' for Inactive)
REMARK    1  A    between atoms: C2_2  and  O1_3 
REMARK    2  A    between atoms: N1_7  and  C6_8 
REMARK    3  A    between atoms: C6_8  and  C7_9 
REMARK    4  A    between atoms: C11_13  and  C12_14 
ROOT
HETATM    1  C6  UNL     1       0.692  -0.762  -0.561  1.00  0.00     0.157 C 
ENDROOT
BRANCH   1   2
HETATM    2  N1  UNL     1      -0.313  -0.727   0.521  1.00  0.00    -0.408 N 
HETATM    3  C5  UNL     1      -0.587   0.628   1.059  1.00  0.00     0.117 C 
HETATM    4  C4  UNL     1      -2.019   1.151   0.866  1.00  0.00     0.022 C 
HETATM    5  C3  UNL     1      -2.493   1.120  -0.597  1.00  0.00     0.039 C 
HETATM    6  C2  UNL     1      -3.192  -0.195  -1.041  1.00  0.00     0.056 C 
HETATM    7  C1  UNL     1      -4.469  -0.482  -0.212  1.00  0.00     0.045 C 
HETATM    8  C15 UNL     1      -2.232  -1.409  -0.995  1.00  0.00     0.057 C 
HETATM    9  C14 UNL     1      -1.465  -1.633   0.330  1.00  0.00     0.120 C 
BRANCH   6  10
HETATM   10  O1  UNL     1      -3.577  -0.047  -2.389  1.00  0.00    -0.390 OA
HETATM   11  H4  UNL     1      -4.230   0.700  -2.450  1.00  0.00     0.210 HD
ENDBRANCH   6  10
ENDBRANCH   1   2
BRANCH   1  12
HETATM   12  C7  UNL     1       2.074  -0.506  -0.002  1.00  0.00    -0.018 A 
HETATM   13  C8  UNL     1       2.612  -1.457   0.880  1.00  0.00     0.010 A 
HETATM   14  C9  UNL     1       3.873  -1.274   1.440  1.00  0.00     0.001 A 
HETATM   15  C10 UNL     1       4.619  -0.139   1.131  1.00  0.00     0.014 A 
HETATM   16  C11 UNL     1       4.112   0.832   0.252  1.00  0.00     0.028 A 
HETATM   17  C13 UNL     1       2.829   0.651  -0.321  1.00  0.00     0.053 A 
HETATM   18 CL1  UNL     1       2.186   1.871  -1.431  1.00  0.00    -0.083 Cl
BRANCH  16  19
HETATM   19  C12 UNL     1       4.950   2.049  -0.057  1.00  0.00     0.388 C 
HETATM   20  F1  UNL     1       5.219   2.106  -1.412  1.00  0.00    -0.209 F 
HETATM   21  F2  UNL     1       4.281   3.195   0.333  1.00  0.00    -0.209 F 
ENDBRANCH  16  19
ENDBRANCH   1  12
TORSDOF 4
