REMARK  3 active torsions:
REMARK  status: ('A' for Active; 'I' for Inactive)
REMARK    1  A    between atoms: C1_2  and  C2_3 
REMARK       I    between atoms: C1_2  and  N2_16 
REMARK    2  A    between atoms: C6_8  and  O2_9 
REMARK    3  A    between atoms: O2_9  and  C7_10 
ROOT
HETATM    1  O1  UNL     1       0.500   1.139  -0.529  1.00  0.00    -0.267 OA
HETATM    2  C1  UNL     1       0.157  -0.037  -0.237  1.00  0.00     0.257 C 
HETATM    3  N2  UNL     1      -1.139  -0.280   0.365  1.00  0.00    -0.332 N 
HETATM    4  C13 UNL     1      -1.144  -1.137   1.570  1.00  0.00     0.129 C 
HETATM    5  C14 UNL     1      -1.933  -0.513   2.723  1.00  0.00     0.046 C 
HETATM    6  C15 UNL     1      -3.435  -0.775   2.594  1.00  0.00     0.169 C 
HETATM    7  O3  UNL     1      -4.005  -0.013   1.554  1.00  0.00    -0.388 OA
HETATM    8  C16 UNL     1      -3.652  -0.525   0.282  1.00  0.00     0.202 C 
HETATM    9  C17 UNL     1      -2.391   0.195  -0.309  1.00  0.00     0.104 C 
HETATM   10  C18 UNL     1      -2.521   1.744  -0.114  1.00  0.00     0.305 C 
HETATM   11  N3  UNL     1      -3.588   2.373  -0.913  1.00  0.00     0.088 N 
HETATM   12  C19 UNL     1      -3.203   2.576  -2.319  1.00  0.00     0.295 C 
HETATM   13  C20 UNL     1      -3.475   1.342  -3.204  1.00  0.00     0.197 C 
HETATM   14  O4  UNL     1      -3.525   0.126  -2.487  1.00  0.00    -0.387 OA
HETATM   15  C21 UNL     1      -2.303  -0.148  -1.827  1.00  0.00     0.202 C 
HETATM   16  H19 UNL     1      -4.496   1.862  -0.834  1.00  0.00     0.316 HD
ENDROOT
BRANCH   2  17
HETATM   17  C2  UNL     1       1.094  -1.156  -0.523  1.00  0.00     0.068 A 
HETATM   18  C3  UNL     1       0.591  -2.434  -0.817  1.00  0.00     0.039 A 
HETATM   19  C4  UNL     1       1.470  -3.480  -1.101  1.00  0.00     0.117 A 
HETATM   20  N1  UNL     1       2.809  -3.262  -1.104  1.00  0.00    -0.270 NA
HETATM   21  C5  UNL     1       3.334  -2.042  -0.823  1.00  0.00     0.154 A 
HETATM   22  C6  UNL     1       2.492  -0.960  -0.509  1.00  0.00     0.109 A 
BRANCH  22  23
HETATM   23  O2  UNL     1       3.021   0.307  -0.217  1.00  0.00    -0.308 OA
BRANCH  23  24
HETATM   24  C7  UNL     1       4.228   0.551   0.453  1.00  0.00     0.076 A 
HETATM   25  C8  UNL     1       4.735  -0.335   1.423  1.00  0.00     0.037 A 
HETATM   26  C9  UNL     1       5.934  -0.045   2.082  1.00  0.00     0.003 A 
HETATM   27  C10 UNL     1       6.628   1.131   1.787  1.00  0.00     0.000 A 
HETATM   28  C11 UNL     1       6.121   2.024   0.839  1.00  0.00     0.003 A 
HETATM   29  C12 UNL     1       4.921   1.737   0.179  1.00  0.00     0.037 A 
ENDBRANCH  23  24
ENDBRANCH  22  23
ENDBRANCH   2  17
TORSDOF 3
