REMARK  2 active torsions:
REMARK  status: ('A' for Active; 'I' for Inactive)
REMARK    1  A    between atoms: C8_8  and  N1_9 
REMARK    2  A    between atoms: N1_9  and  C9_10 
ROOT
HETATM    1  C1  UNL     1      -1.459  -3.534  -3.076  1.00  0.00     0.048 C 
HETATM    2  C2  UNL     1      -0.995  -2.249  -2.456  1.00  0.00    -0.061 A 
HETATM    3  C3  UNL     1      -1.432  -1.885  -1.179  1.00  0.00     0.019 A 
HETATM    4  C4  UNL     1      -0.986  -0.700  -0.570  1.00  0.00    -0.016 A 
HETATM    5  C5  UNL     1      -0.055   0.144  -1.254  1.00  0.00    -0.014 A 
HETATM    6  C6  UNL     1       0.384  -0.262  -2.531  1.00  0.00     0.011 A 
HETATM    7  C7  UNL     1      -0.076  -1.437  -3.123  1.00  0.00     0.007 A 
HETATM    8  C8  UNL     1       0.642   1.393  -0.675  1.00  0.00     0.262 C 
HETATM    9  C18 UNL     1      -0.115   2.285   0.338  1.00  0.00     0.124 C 
HETATM   10  C19 UNL     1      -1.259   3.058  -0.281  1.00  0.00     0.162 C 
HETATM   11  O1  UNL     1      -1.188   4.317  -0.277  1.00  0.00    -0.292 OA
HETATM   12  C20 UNL     1      -2.432   2.423  -0.939  1.00  0.00     0.021 A 
HETATM   13  C21 UNL     1      -2.935   3.018  -2.112  1.00  0.00     0.016 A 
HETATM   14  C22 UNL     1      -4.054   2.491  -2.759  1.00  0.00     0.001 A 
HETATM   15  C23 UNL     1      -4.697   1.368  -2.241  1.00  0.00     0.001 A 
HETATM   16  C24 UNL     1      -4.223   0.771  -1.074  1.00  0.00     0.013 A 
HETATM   17  C25 UNL     1      -3.097   1.288  -0.414  1.00  0.00    -0.011 A 
HETATM   18  C26 UNL     1      -2.632   0.600   0.802  1.00  0.00    -0.014 A 
HETATM   19  C27 UNL     1      -3.240   0.880   2.034  1.00  0.00     0.013 A 
HETATM   20  C28 UNL     1      -2.839   0.199   3.186  1.00  0.00     0.001 A 
HETATM   21  C29 UNL     1      -1.846  -0.779   3.110  1.00  0.00     0.001 A 
HETATM   22  C30 UNL     1      -1.241  -1.072   1.885  1.00  0.00     0.013 A 
HETATM   23  C31 UNL     1      -1.603  -0.362   0.729  1.00  0.00    -0.014 A 
ENDROOT
BRANCH   8  24
HETATM   24  N1  UNL     1       2.012   1.091  -0.201  1.00  0.00     0.102 N 
HETATM   25  H8  UNL     1       2.567   0.757  -1.023  1.00  0.00     0.317 HD
BRANCH  24  26
HETATM   26  C9  UNL     1       2.085   0.112   0.906  1.00  0.00     0.255 A 
HETATM   27  C10 UNL     1       2.097   0.826   2.281  1.00  0.00     0.045 A 
HETATM   28  C11 UNL     1       3.340   0.344   3.051  1.00  0.00     0.041 A 
HETATM   29  C12 UNL     1       4.060  -0.504   2.077  1.00  0.00    -0.050 A 
HETATM   30  C13 UNL     1       5.271  -1.168   2.289  1.00  0.00     0.007 A 
HETATM   31  C17 UNL     1       3.375  -0.635   0.896  1.00  0.00    -0.019 A 
HETATM   32  C14 UNL     1       5.781  -1.986   1.270  1.00  0.00     0.001 A 
HETATM   33  C15 UNL     1       5.070  -2.140   0.067  1.00  0.00     0.001 A 
HETATM   34  C16 UNL     1       3.852  -1.470  -0.122  1.00  0.00     0.010 A 
ENDBRANCH  24  26
ENDBRANCH   8  24
TORSDOF 2
