REMARK  2 active torsions:
REMARK  status: ('A' for Active; 'I' for Inactive)
REMARK    1  A    between atoms: C1_2  and  C2_3 
REMARK    2  A    between atoms: C1_2  and  C22_23 
ROOT
HETATM    1  C22 UNL     1      -1.456  -0.230   0.009  1.00  0.00     0.016 C 
HETATM    2  C23 UNL     1      -2.457   0.441   0.790  1.00  0.00     0.029 C 
HETATM    3  C24 UNL     1      -3.588  -0.239   1.266  1.00  0.00    -0.009 C 
HETATM    4  C25 UNL     1      -3.833  -1.563   0.772  1.00  0.00     0.037 C 
HETATM    5  C26 UNL     1      -2.727  -2.257   0.186  1.00  0.00     0.018 C 
HETATM    6  C27 UNL     1      -1.510  -1.630  -0.103  1.00  0.00     0.016 C 
HETATM    7  C28 UNL     1      -5.190  -2.187   0.775  1.00  0.00     0.236 C 
HETATM    8  O2  UNL     1      -5.486  -3.053  -0.123  1.00  0.00    -0.274 OA
HETATM    9  N1  UNL     1      -6.153  -1.851   1.752  1.00  0.00    -0.224 NA
HETATM   10  C29 UNL     1      -7.037  -0.749   1.385  1.00  0.00     0.026 C 
HETATM   11  C30 UNL     1      -8.294  -1.037   0.766  1.00  0.00     0.025 C 
HETATM   12  C31 UNL     1      -9.170  -0.008   0.356  1.00  0.00     0.002 C 
HETATM   13  C32 UNL     1      -8.730   1.307   0.392  1.00  0.00     0.001 C 
HETATM   14  C33 UNL     1      -7.451   1.605   0.937  1.00  0.00     0.014 C 
HETATM   15  C34 UNL     1      -6.578   0.574   1.425  1.00  0.00    -0.004 C 
HETATM   16  C35 UNL     1      -5.546   0.920   2.479  1.00  0.00    -0.013 C 
HETATM   17  C36 UNL     1      -6.027   1.639   3.635  1.00  0.00     0.013 C 
HETATM   18  C37 UNL     1      -5.159   2.004   4.691  1.00  0.00     0.001 C 
HETATM   19  C38 UNL     1      -3.875   1.506   4.706  1.00  0.00     0.001 C 
HETATM   20  C39 UNL     1      -3.395   0.738   3.607  1.00  0.00     0.013 C 
HETATM   21  C40 UNL     1      -4.241   0.412   2.466  1.00  0.00    -0.014 C 
HETATM   22  H19 UNL     1      -5.646  -1.603   2.642  1.00  0.00     0.137 HD
ENDROOT
BRANCH   1  23
HETATM   23  C1  UNL     1      -0.667   0.514  -0.963  1.00  0.00     0.192 C 
HETATM   24  O1  UNL     1      -1.167   1.476  -1.613  1.00  0.00    -0.287 OA
BRANCH  23  25
HETATM   25  C2  UNL     1       0.672   0.025  -1.302  1.00  0.00     0.015 C 
HETATM   26  C3  UNL     1       0.976  -0.394  -2.595  1.00  0.00     0.016 C 
HETATM   27  C4  UNL     1       2.333  -0.643  -2.922  1.00  0.00     0.014 C 
HETATM   28  C5  UNL     1       3.376  -0.426  -1.975  1.00  0.00    -0.019 C 
HETATM   29  C6  UNL     1       3.048   0.251  -0.759  1.00  0.00    -0.046 C 
HETATM   30  C21 UNL     1       4.602  -1.292  -2.000  1.00  0.00    -0.014 C 
HETATM   31  C7  UNL     1       1.682   0.375  -0.423  1.00  0.00     0.023 C 
HETATM   32  C8  UNL     1       3.989   1.111   0.023  1.00  0.00     0.044 C 
HETATM   33  C9  UNL     1       4.678   2.082  -0.926  1.00  0.00     0.044 C 
HETATM   34  C10 UNL     1       6.033   1.686  -1.442  1.00  0.00    -0.047 C 
HETATM   35  C11 UNL     1       6.905   2.795  -1.684  1.00  0.00     0.008 C 
HETATM   36  C15 UNL     1       6.503   0.370  -1.715  1.00  0.00    -0.019 C 
HETATM   37  C12 UNL     1       8.224   2.637  -2.114  1.00  0.00     0.001 C 
HETATM   38  C13 UNL     1       8.696   1.378  -2.394  1.00  0.00     0.001 C 
HETATM   39  C14 UNL     1       7.823   0.261  -2.279  1.00  0.00     0.013 C 
HETATM   40  C16 UNL     1       5.799  -0.951  -1.368  1.00  0.00    -0.014 C 
HETATM   41  C17 UNL     1       6.649  -2.028  -0.925  1.00  0.00     0.013 C 
HETATM   42  C18 UNL     1       6.406  -3.393  -1.277  1.00  0.00     0.001 C 
HETATM   43  C19 UNL     1       5.346  -3.684  -2.106  1.00  0.00     0.001 C 
HETATM   44  C20 UNL     1       4.372  -2.688  -2.300  1.00  0.00     0.013 C 
ENDBRANCH  23  25
ENDBRANCH   1  23
TORSDOF 2
