REMARK  2 active torsions:
REMARK  status: ('A' for Active; 'I' for Inactive)
REMARK       I    between atoms: C1_2  and  N1_3 
REMARK    1  A    between atoms: C1_2  and  C22_26 
REMARK    2  A    between atoms: N1_3  and  C2_4 
ROOT
HETATM    1  C2  UNL     1       0.989   0.653   0.123  1.00  0.00     0.035 A 
HETATM    2  C3  UNL     1       1.360   0.378   1.441  1.00  0.00     0.030 A 
HETATM    3  C4  UNL     1       2.703   0.373   1.807  1.00  0.00     0.015 A 
HETATM    4  C5  UNL     1       3.734   0.666   0.880  1.00  0.00    -0.018 A 
HETATM    5  C6  UNL     1       3.351   0.927  -0.467  1.00  0.00    -0.036 A 
HETATM    6  C7  UNL     1       1.985   0.936  -0.815  1.00  0.00     0.038 A 
HETATM    7  C8  UNL     1       4.329   1.048  -1.595  1.00  0.00     0.142 C 
HETATM    8  C9  UNL     1       4.559  -0.327  -2.170  1.00  0.00     0.226 C 
HETATM    9  O2  UNL     1       3.684  -0.830  -2.926  1.00  0.00    -0.273 OA
HETATM   10  N2  UNL     1       5.713  -1.101  -1.828  1.00  0.00    -0.326 N 
HETATM   11  C10 UNL     1       6.912  -0.440  -1.435  1.00  0.00     0.045 A 
HETATM   12  C11 UNL     1       7.908  -0.224  -2.398  1.00  0.00     0.030 A 
HETATM   13  C12 UNL     1       9.013   0.578  -2.105  1.00  0.00     0.002 A 
HETATM   14  C13 UNL     1       9.123   1.179  -0.851  1.00  0.00     0.001 A 
HETATM   15  C14 UNL     1       8.145   0.955   0.120  1.00  0.00     0.014 A 
HETATM   16  C15 UNL     1       7.035   0.129  -0.152  1.00  0.00     0.002 A 
HETATM   17  C16 UNL     1       6.133  -0.232   0.973  1.00  0.00    -0.013 C 
HETATM   18  C17 UNL     1       6.801  -0.992   1.953  1.00  0.00     0.013 C 
HETATM   19  C18 UNL     1       6.783  -0.591   3.290  1.00  0.00     0.001 C 
HETATM   20  C19 UNL     1       6.095   0.563   3.655  1.00  0.00     0.001 C 
HETATM   21  C20 UNL     1       5.289   1.214   2.719  1.00  0.00     0.013 C 
HETATM   22  C21 UNL     1       5.148   0.698   1.411  1.00  0.00    -0.014 C 
HETATM   23  H7  UNL     1       5.796  -2.062  -2.231  1.00  0.00     0.169 HD
ENDROOT
BRANCH   1  24
HETATM   24  N1  UNL     1      -0.391   0.676  -0.279  1.00  0.00    -0.323 N 
HETATM   25  C1  UNL     1      -1.396  -0.194   0.271  1.00  0.00     0.256 C 
HETATM   26  O1  UNL     1      -1.049  -1.244   0.879  1.00  0.00    -0.267 OA
HETATM   27  H1  UNL     1      -0.648   1.264  -1.104  1.00  0.00     0.169 HD
BRANCH  25  28
HETATM   28  C22 UNL     1      -2.839   0.099   0.085  1.00  0.00     0.033 C 
HETATM   29  C23 UNL     1      -3.792  -0.922   0.195  1.00  0.00     0.030 C 
HETATM   30  C24 UNL     1      -5.183  -0.672   0.035  1.00  0.00    -0.013 C 
HETATM   31  C25 UNL     1      -5.595   0.634  -0.355  1.00  0.00    -0.014 C 
HETATM   32  C39 UNL     1      -6.159  -1.691   0.248  1.00  0.00    -0.014 A 
HETATM   33  C26 UNL     1      -4.618   1.662  -0.393  1.00  0.00     0.014 C 
HETATM   34  C28 UNL     1      -6.958   0.881  -0.691  1.00  0.00    -0.014 A 
HETATM   35  C27 UNL     1      -3.272   1.397  -0.173  1.00  0.00     0.018 C 
HETATM   36  C29 UNL     1      -7.379   2.130  -1.225  1.00  0.00     0.013 A 
HETATM   37  C33 UNL     1      -7.930  -0.154  -0.535  1.00  0.00    -0.014 A 
HETATM   38  C30 UNL     1      -8.709   2.370  -1.550  1.00  0.00     0.001 A 
HETATM   39  C31 UNL     1      -9.656   1.379  -1.373  1.00  0.00     0.001 A 
HETATM   40  C32 UNL     1      -9.280   0.133  -0.883  1.00  0.00     0.013 A 
HETATM   41  C34 UNL     1      -7.534  -1.434  -0.042  1.00  0.00    -0.014 A 
HETATM   42  C35 UNL     1      -8.474  -2.479   0.177  1.00  0.00     0.013 A 
HETATM   43  C36 UNL     1      -8.084  -3.718   0.674  1.00  0.00     0.001 A 
HETATM   44  C37 UNL     1      -6.758  -3.954   0.986  1.00  0.00     0.001 A 
HETATM   45  C38 UNL     1      -5.808  -2.959   0.789  1.00  0.00     0.013 A 
ENDBRANCH  25  28
ENDBRANCH   1  24
TORSDOF 2
