REMARK  6 active torsions:
REMARK  status: ('A' for Active; 'I' for Inactive)
REMARK    1  A    between atoms: C1_2  and  C2_3 
REMARK       I    between atoms: C1_2  and  N1_27 
REMARK    2  A    between atoms: C5_6  and  C25_26 
REMARK    3  A    between atoms: C6_7  and  C8_9 
REMARK    4  A    between atoms: C13_14  and  C14_15 
REMARK    5  A    between atoms: C19_20  and  C20_21 
REMARK    6  A    between atoms: N1_27  and  C26_28 
ROOT
HETATM    1  C2  UNL     1      -1.721   0.102  -1.698  1.00  0.00     0.033 C 
HETATM    2  C3  UNL     1      -2.593   0.998  -2.370  1.00  0.00     0.018 C 
HETATM    3  C4  UNL     1      -3.859   1.271  -1.843  1.00  0.00     0.014 C 
HETATM    4  C5  UNL     1      -4.275   0.683  -0.634  1.00  0.00    -0.014 C 
HETATM    5  C6  UNL     1      -3.492  -0.324  -0.024  1.00  0.00    -0.013 C 
HETATM    6  C7  UNL     1      -2.211  -0.587  -0.577  1.00  0.00     0.030 C 
ENDROOT
BRANCH   1   7
HETATM    7  C1  UNL     1      -0.259   0.043  -2.052  1.00  0.00     0.256 C 
HETATM    8  O1  UNL     1       0.235   0.790  -2.956  1.00  0.00    -0.267 OA
HETATM    9  N1  UNL     1       0.653  -0.714  -1.227  1.00  0.00    -0.323 N 
HETATM   10  H16 UNL     1       0.418  -1.677  -0.857  1.00  0.00     0.169 HD
BRANCH   9  11
HETATM   11  C26 UNL     1       1.935  -0.188  -0.866  1.00  0.00     0.035 A 
HETATM   12  C27 UNL     1       2.181   0.191   0.467  1.00  0.00     0.030 A 
HETATM   13  C28 UNL     1       3.393   0.810   0.813  1.00  0.00     0.015 A 
HETATM   14  C29 UNL     1       4.377   1.019  -0.165  1.00  0.00    -0.019 A 
HETATM   15  C30 UNL     1       4.163   0.591  -1.495  1.00  0.00    -0.045 A 
HETATM   16  C45 UNL     1       5.584   1.774   0.206  1.00  0.00    -0.014 A 
HETATM   17  C31 UNL     1       2.938  -0.015  -1.844  1.00  0.00     0.037 A 
HETATM   18  C32 UNL     1       5.134   0.973  -2.599  1.00  0.00     0.044 C 
HETATM   19  C33 UNL     1       6.478   0.214  -2.625  1.00  0.00     0.044 C 
HETATM   20  C34 UNL     1       6.729  -0.746  -1.475  1.00  0.00    -0.047 A 
HETATM   21  C35 UNL     1       6.773  -2.125  -1.700  1.00  0.00     0.008 A 
HETATM   22  C39 UNL     1       7.007  -0.258  -0.169  1.00  0.00    -0.019 A 
HETATM   23  C36 UNL     1       7.144  -3.008  -0.681  1.00  0.00     0.001 A 
HETATM   24  C37 UNL     1       7.494  -2.510   0.572  1.00  0.00     0.001 A 
HETATM   25  C38 UNL     1       7.394  -1.160   0.857  1.00  0.00     0.013 A 
HETATM   26  C40 UNL     1       6.851   1.165   0.175  1.00  0.00    -0.014 A 
HETATM   27  C41 UNL     1       7.960   1.868   0.629  1.00  0.00     0.013 A 
HETATM   28  C42 UNL     1       7.821   3.201   1.051  1.00  0.00     0.001 A 
HETATM   29  C43 UNL     1       6.567   3.829   1.047  1.00  0.00     0.001 A 
HETATM   30  C44 UNL     1       5.454   3.094   0.642  1.00  0.00     0.013 A 
ENDBRANCH   9  11
ENDBRANCH   1   7
BRANCH   5  31
HETATM   31  C8  UNL     1      -3.780  -0.915   1.322  1.00  0.00    -0.014 C 
HETATM   32  C9  UNL     1      -2.765  -0.711   2.298  1.00  0.00     0.013 C 
HETATM   33  C10 UNL     1      -2.656  -1.578   3.390  1.00  0.00     0.001 C 
HETATM   34  C11 UNL     1      -3.499  -2.696   3.489  1.00  0.00     0.001 C 
HETATM   35  C12 UNL     1      -4.560  -2.856   2.606  1.00  0.00     0.013 C 
HETATM   36  C13 UNL     1      -4.827  -1.890   1.585  1.00  0.00    -0.014 C 
BRANCH  36  37
HETATM   37  C14 UNL     1      -6.117  -1.982   0.764  1.00  0.00    -0.014 C 
HETATM   38  C15 UNL     1      -6.952  -3.151   0.841  1.00  0.00     0.013 C 
HETATM   39  C16 UNL     1      -8.007  -3.332  -0.044  1.00  0.00     0.001 C 
HETATM   40  C17 UNL     1      -8.314  -2.325  -0.966  1.00  0.00     0.001 C 
HETATM   41  C18 UNL     1      -7.674  -1.084  -0.891  1.00  0.00     0.013 C 
HETATM   42  C19 UNL     1      -6.643  -0.879   0.039  1.00  0.00    -0.014 C 
BRANCH  42  43
HETATM   43  C20 UNL     1      -6.483   0.519   0.521  1.00  0.00    -0.014 A 
HETATM   44  C21 UNL     1      -7.544   1.151   1.222  1.00  0.00     0.013 A 
HETATM   45  C22 UNL     1      -7.509   2.536   1.459  1.00  0.00     0.001 A 
HETATM   46  C23 UNL     1      -6.450   3.307   0.972  1.00  0.00     0.001 A 
HETATM   47  C24 UNL     1      -5.398   2.681   0.302  1.00  0.00     0.013 A 
HETATM   48  C25 UNL     1      -5.400   1.281   0.093  1.00  0.00    -0.014 A 
ENDBRANCH  42  43
ENDBRANCH  36  37
ENDBRANCH   5  31
TORSDOF 6
