REMARK  3 active torsions:
REMARK  status: ('A' for Active; 'I' for Inactive)
REMARK    1  A    between atoms: O1_2  and  C2_3 
REMARK    2  A    between atoms: C4_5  and  C5_6 
REMARK    3  A    between atoms: C5_6  and  C6_7 
REMARK       I    between atoms: C6_7  and  N1_9 
ROOT
HETATM    1  C5  UNL     1      -0.878   0.295  -0.200  1.00  0.00     0.118 C 
HETATM    2  C12 UNL     1      -2.388   0.088  -0.604  1.00  0.00     0.040 C 
HETATM    3  C13 UNL     1      -2.791  -1.195  -1.359  1.00  0.00     0.105 C 
HETATM    4  C14 UNL     1      -3.017  -2.368  -0.454  1.00  0.00     0.217 C 
HETATM    5  O3  UNL     1      -4.163  -2.566   0.029  1.00  0.00    -0.274 OA
HETATM    6  N2  UNL     1      -1.958  -3.277  -0.146  1.00  0.00    -0.357 N 
HETATM    7  C15 UNL     1      -0.563  -2.863  -0.188  1.00  0.00     0.161 C 
HETATM    8  C16 UNL     1      -0.281  -1.984   1.007  1.00  0.00    -0.029 C 
HETATM    9  C17 UNL     1       0.122  -2.668   2.170  1.00  0.00     0.009 C 
HETATM   10  C18 UNL     1       0.210  -2.022   3.393  1.00  0.00     0.004 C 
HETATM   11  C19 UNL     1      -0.160  -0.693   3.496  1.00  0.00     0.043 C 
HETATM   12  C20 UNL     1      -0.567   0.020   2.370  1.00  0.00     0.124 C 
HETATM   13  F1  UNL     1      -0.992   1.286   2.597  1.00  0.00    -0.205 F 
HETATM   14  C21 UNL     1      -0.564  -0.572   1.067  1.00  0.00     0.013 C 
HETATM   15  H19 UNL     1      -2.193  -4.184   0.317  1.00  0.00     0.162 HD
ENDROOT
BRANCH   1  16
HETATM   16  C4  UNL     1      -0.672   1.800   0.063  1.00  0.00     0.081 A 
HETATM   17  C3  UNL     1      -1.651   2.757   0.341  1.00  0.00     0.088 A 
HETATM   18  C2  UNL     1      -0.943   3.930   0.504  1.00  0.00     0.160 A 
HETATM   19  N4  UNL     1       0.364   3.690   0.335  1.00  0.00    -0.257 N 
HETATM   20  N3  UNL     1       0.539   2.406   0.070  1.00  0.00    -0.176 NA
HETATM   21  H25 UNL     1       1.137   4.388   0.401  1.00  0.00     0.191 HD
BRANCH  18  22
HETATM   22  O1  UNL     1      -1.462   5.192   0.804  1.00  0.00    -0.340 OA
HETATM   23  C1  UNL     1      -2.853   5.430   0.987  1.00  0.00     0.211 C 
ENDBRANCH  18  22
ENDBRANCH   1  16
BRANCH   1  24
HETATM   24  C6  UNL     1       0.056   0.019  -1.391  1.00  0.00     0.239 C 
HETATM   25  O2  UNL     1      -0.360   0.333  -2.542  1.00  0.00    -0.272 OA
HETATM   26  N1  UNL     1       1.416  -0.482  -1.274  1.00  0.00    -0.351 N 
HETATM   27  C7  UNL     1       2.246  -0.336  -0.064  1.00  0.00     0.126 C 
HETATM   28  C11 UNL     1       2.019  -1.097  -2.472  1.00  0.00     0.126 C 
HETATM   29  C8  UNL     1       3.647   0.147  -0.448  1.00  0.00     0.020 C 
HETATM   30  C9  UNL     1       4.332  -0.781  -1.473  1.00  0.00     0.003 C 
HETATM   31  C10 UNL     1       3.366  -1.760  -2.159  1.00  0.00     0.020 C 
ENDBRANCH   1  24
TORSDOF 3
