REMARK  4 active torsions:
REMARK  status: ('A' for Active; 'I' for Inactive)
REMARK    1  A    between atoms: C5_5  and  O1_6 
REMARK    2  A    between atoms: C7_8  and  C8_9 
REMARK       I    between atoms: C8_9  and  N1_11 
REMARK    3  A    between atoms: C18_21  and  C19_22 
REMARK    4  A    between atoms: C22_25  and  C23_26 
REMARK       I    between atoms: C23_26  and  N2_27 
ROOT
HETATM    1  C8  UNL     1      -1.875   0.019   1.043  1.00  0.00     0.255 C 
HETATM    2  O2  UNL     1      -2.317   0.268   2.197  1.00  0.00    -0.267 OA
HETATM    3  N1  UNL     1      -1.474   1.114   0.188  1.00  0.00    -0.335 N 
HETATM    4  C9  UNL     1      -2.376   2.268   0.078  1.00  0.00     0.127 C 
HETATM    5  C10 UNL     1      -2.088   3.298   1.177  1.00  0.00     0.025 C 
HETATM    6  C11 UNL     1      -0.628   3.282   1.647  1.00  0.00     0.041 C 
HETATM    7  C12 UNL     1       0.353   3.447   0.504  1.00  0.00    -0.049 A 
HETATM    8  C13 UNL     1       1.105   4.637   0.453  1.00  0.00     0.007 A 
HETATM    9  C14 UNL     1       2.040   4.852  -0.557  1.00  0.00     0.001 A 
HETATM   10  C15 UNL     1       2.241   3.887  -1.538  1.00  0.00     0.001 A 
HETATM   11  C16 UNL     1       1.503   2.705  -1.517  1.00  0.00     0.010 A 
HETATM   12  C17 UNL     1       0.546   2.459  -0.511  1.00  0.00    -0.024 A 
HETATM   13  C18 UNL     1      -0.221   1.135  -0.607  1.00  0.00     0.157 C 
ENDROOT
BRANCH  13  14
HETATM   14  C19 UNL     1       0.710  -0.043  -0.332  1.00  0.00     0.008 A 
HETATM   15  C20 UNL     1       0.837  -1.058  -1.297  1.00  0.00     0.013 A 
HETATM   16  C21 UNL     1       1.635  -2.178  -1.057  1.00  0.00     0.018 A 
HETATM   17  C22 UNL     1       2.345  -2.304   0.148  1.00  0.00     0.034 A 
HETATM   18  C24 UNL     1       2.237  -1.283   1.107  1.00  0.00     0.060 A 
HETATM   19  C25 UNL     1       1.435  -0.162   0.871  1.00  0.00     0.126 A 
HETATM   20  F1  UNL     1       1.360   0.791   1.829  1.00  0.00    -0.205 F 
BRANCH  17  21
HETATM   21  C23 UNL     1       3.162  -3.515   0.402  1.00  0.00     0.249 C 
HETATM   22  N2  UNL     1       4.244  -3.504   1.337  1.00  0.00    -0.366 N 
HETATM   23  H21 UNL     1       4.763  -4.387   1.541  1.00  0.00     0.159 HD
HETATM   24  H22 UNL     1       4.593  -2.619   1.764  1.00  0.00     0.159 HD
HETATM   25  O3  UNL     1       2.910  -4.579  -0.225  1.00  0.00    -0.268 OA
ENDBRANCH  17  21
ENDBRANCH  13  14
BRANCH   1  26
HETATM   26  C7  UNL     1      -1.792  -1.393   0.606  1.00  0.00     0.040 A 
HETATM   27  C2  UNL     1      -2.327  -1.838  -0.629  1.00  0.00    -0.046 A 
HETATM   28  C1  UNL     1      -3.100  -0.923  -1.540  1.00  0.00     0.049 C 
HETATM   29  C3  UNL     1      -2.127  -3.173  -1.021  1.00  0.00     0.010 A 
HETATM   30  C4  UNL     1      -1.446  -4.064  -0.190  1.00  0.00     0.037 A 
HETATM   31  C5  UNL     1      -0.960  -3.638   1.049  1.00  0.00     0.066 A 
HETATM   32  C6  UNL     1      -1.146  -2.313   1.449  1.00  0.00     0.054 A 
BRANCH  31  33
HETATM   33  O1  UNL     1      -0.281  -4.520   1.887  1.00  0.00    -0.361 OA
HETATM   34  H6  UNL     1      -0.120  -5.485   1.622  1.00  0.00     0.217 HD
ENDBRANCH  31  33
ENDBRANCH   1  26
TORSDOF 4
