REMARK  2 active torsions:
REMARK  status: ('A' for Active; 'I' for Inactive)
REMARK       I    between atoms: C1_2  and  N1_3 
REMARK    1  A    between atoms: C1_2  and  C21_24 
REMARK       I    between atoms: N1_3  and  C2_4 
REMARK    2  A    between atoms: C2_4  and  C3_6 
ROOT
HETATM    1  O1  UNL     1      -0.875  -1.709   2.269  1.00  0.00    -0.267 OA
HETATM    2  C1  UNL     1      -0.846  -0.953   1.259  1.00  0.00     0.261 C 
HETATM    3  N1  UNL     1       0.412  -0.604   0.653  1.00  0.00    -0.289 N 
HETATM    4  C2  UNL     1       1.691  -0.881   1.251  1.00  0.00     0.258 C 
HETATM    5  O2  UNL     1       1.781  -1.721   2.189  1.00  0.00    -0.267 OA
HETATM    6  H1  UNL     1       0.398  -0.168  -0.295  1.00  0.00     0.172 HD
ENDROOT
BRANCH   2   7
HETATM    7  C21 UNL     1      -2.122  -0.455   0.695  1.00  0.00     0.071 A 
HETATM    8  C22 UNL     1      -3.270  -1.262   0.759  1.00  0.00     0.033 A 
HETATM    9  C23 UNL     1      -4.496  -0.818   0.237  1.00  0.00    -0.013 A 
HETATM   10  C24 UNL     1      -4.575   0.455  -0.365  1.00  0.00    -0.011 A 
HETATM   11  C40 UNL     1      -5.668  -1.721   0.298  1.00  0.00    -0.015 A 
HETATM   12  C25 UNL     1      -3.431   1.264  -0.419  1.00  0.00     0.056 A 
HETATM   13  C27 UNL     1      -5.830   0.954  -0.972  1.00  0.00    -0.015 A 
HETATM   14  C26 UNL     1      -2.218   0.824   0.115  1.00  0.00     0.133 A 
HETATM   15  F1  UNL     1      -1.157   1.669   0.103  1.00  0.00    -0.205 F 
HETATM   16  C28 UNL     1      -5.863   1.202  -2.354  1.00  0.00     0.013 A 
HETATM   17  C32 UNL     1      -6.963   1.260  -0.184  1.00  0.00    -0.025 A 
HETATM   18  C29 UNL     1      -7.004   1.745  -2.949  1.00  0.00     0.001 A 
HETATM   19  C30 UNL     1      -8.115   2.064  -2.167  1.00  0.00     0.001 A 
HETATM   20  C31 UNL     1      -8.092   1.832  -0.790  1.00  0.00     0.012 A 
HETATM   21  C33 UNL     1      -6.979   1.054   1.278  1.00  0.00     0.013 C 
HETATM   22  C34 UNL     1      -6.906  -0.153   1.850  1.00  0.00     0.013 C 
HETATM   23  C35 UNL     1      -6.805  -1.409   1.080  1.00  0.00    -0.025 A 
HETATM   24  C36 UNL     1      -7.849  -2.341   1.186  1.00  0.00     0.012 A 
HETATM   25  C37 UNL     1      -7.787  -3.554   0.497  1.00  0.00     0.001 A 
HETATM   26  C38 UNL     1      -6.673  -3.858  -0.287  1.00  0.00     0.001 A 
HETATM   27  C39 UNL     1      -5.615  -2.951  -0.380  1.00  0.00     0.013 A 
ENDBRANCH   2   7
BRANCH   4  28
HETATM   28  C3  UNL     1       2.918  -0.200   0.767  1.00  0.00     0.033 A 
HETATM   29  C4  UNL     1       4.177  -0.782   0.959  1.00  0.00     0.030 A 
HETATM   30  C5  UNL     1       5.375  -0.142   0.536  1.00  0.00    -0.013 A 
HETATM   31  C6  UNL     1       5.270   1.083  -0.185  1.00  0.00    -0.014 A 
HETATM   32  C20 UNL     1       6.659  -0.704   0.803  1.00  0.00    -0.014 A 
HETATM   33  C7  UNL     1       3.987   1.673  -0.322  1.00  0.00     0.014 A 
HETATM   34  C9  UNL     1       6.439   1.689  -0.734  1.00  0.00    -0.014 A 
HETATM   35  C8  UNL     1       2.840   1.046   0.149  1.00  0.00     0.018 A 
HETATM   36  C10 UNL     1       6.365   2.857  -1.543  1.00  0.00     0.013 A 
HETATM   37  C14 UNL     1       7.723   1.107  -0.501  1.00  0.00    -0.014 A 
HETATM   38  C11 UNL     1       7.508   3.462  -2.052  1.00  0.00     0.001 A 
HETATM   39  C12 UNL     1       8.754   2.928  -1.784  1.00  0.00     0.001 A 
HETATM   40  C13 UNL     1       8.868   1.770  -1.024  1.00  0.00     0.013 A 
HETATM   41  C15 UNL     1       7.831  -0.098   0.256  1.00  0.00    -0.014 A 
HETATM   42  C16 UNL     1       9.084  -0.731   0.484  1.00  0.00     0.013 A 
HETATM   43  C17 UNL     1       9.189  -1.875   1.268  1.00  0.00     0.001 A 
HETATM   44  C18 UNL     1       8.063  -2.420   1.854  1.00  0.00     0.001 A 
HETATM   45  C19 UNL     1       6.816  -1.847   1.635  1.00  0.00     0.013 A 
ENDBRANCH   4  28
TORSDOF 2
