REMARK  6 active torsions:
REMARK  status: ('A' for Active; 'I' for Inactive)
REMARK    1  A    between atoms: O1_2  and  C2_3 
REMARK    2  A    between atoms: C2_3  and  C3_4 
REMARK    3  A    between atoms: C2_3  and  C16_23 
REMARK    4  A    between atoms: C3_4  and  C4_5 
REMARK    5  A    between atoms: C4_5  and  N1_6 
REMARK       I    between atoms: N1_6  and  C5_7 
REMARK       I    between atoms: C5_7  and  N2_9 
REMARK    6  A    between atoms: N3_13  and  C9_14 
ROOT
HETATM    1  N1  UNL     1      -0.051   1.005  -1.607  1.00  0.00    -0.342 N 
HETATM    2  C5  UNL     1       0.022   1.911  -0.495  1.00  0.00     0.337 C 
HETATM    3  O2  UNL     1      -0.462   3.072  -0.597  1.00  0.00    -0.245 OA
HETATM    4  N2  UNL     1       0.655   1.499   0.730  1.00  0.00    -0.239 N 
HETATM    5  C6  UNL     1       0.908   2.487   1.784  1.00  0.00     0.156 C 
HETATM    6  C7  UNL     1       2.071   2.074   2.684  1.00  0.00     0.042 C 
HETATM    7  C8  UNL     1       3.247   1.537   1.861  1.00  0.00     0.135 C 
HETATM    8  N3  UNL     1       3.145   0.085   1.652  1.00  0.00    -0.299 N 
HETATM    9  C15 UNL     1       1.903  -0.585   1.318  1.00  0.00     0.341 C 
HETATM   10  O3  UNL     1       1.877  -1.845   1.256  1.00  0.00    -0.245 OA
HETATM   11  N4  UNL     1       0.687   0.128   1.040  1.00  0.00    -0.245 N 
HETATM   12  H9  UNL     1       0.493   0.114  -1.572  1.00  0.00     0.164 HD
HETATM   13  H21 UNL     1      -0.159  -0.444   0.818  1.00  0.00     0.192 HD
ENDROOT
BRANCH   1  14
HETATM   14  C4  UNL     1      -0.946   1.214  -2.745  1.00  0.00     0.127 C 
BRANCH  14  15
HETATM   15  C3  UNL     1      -2.069   0.169  -2.749  1.00  0.00     0.056 C 
BRANCH  15  16
HETATM   16  C2  UNL     1      -2.973   0.263  -1.506  1.00  0.00     0.155 C 
BRANCH  16  17
HETATM   17  O1  UNL     1      -3.591   1.539  -1.471  1.00  0.00    -0.386 OA
HETATM   18  C1  UNL     1      -3.922   1.889  -0.144  1.00  0.00     0.202 C 
ENDBRANCH  16  17
BRANCH  16  19
HETATM   19  C16 UNL     1      -4.023  -0.829  -1.565  1.00  0.00    -0.029 A 
HETATM   20  C17 UNL     1      -3.877  -1.993  -0.791  1.00  0.00     0.010 A 
HETATM   21  C18 UNL     1      -4.834  -3.010  -0.859  1.00  0.00     0.001 A 
HETATM   22  C19 UNL     1      -5.938  -2.879  -1.706  1.00  0.00     0.000 A 
HETATM   23  C20 UNL     1      -6.085  -1.731  -2.489  1.00  0.00     0.001 A 
HETATM   24  C21 UNL     1      -5.132  -0.711  -2.424  1.00  0.00     0.010 A 
ENDBRANCH  16  19
ENDBRANCH  15  16
ENDBRANCH  14  15
ENDBRANCH   1  14
BRANCH   8  25
HETATM   25  C9  UNL     1       4.362  -0.683   1.700  1.00  0.00     0.038 A 
HETATM   26  C10 UNL     1       5.430  -0.371   0.842  1.00  0.00     0.030 A 
HETATM   27  C11 UNL     1       6.616  -1.109   0.896  1.00  0.00     0.002 A 
HETATM   28  C12 UNL     1       6.747  -2.158   1.811  1.00  0.00     0.000 A 
HETATM   29  C13 UNL     1       5.693  -2.468   2.674  1.00  0.00     0.002 A 
HETATM   30  C14 UNL     1       4.505  -1.733   2.622  1.00  0.00     0.030 A 
ENDBRANCH   8  25
TORSDOF 6
