REMARK  2 active torsions:
REMARK  status: ('A' for Active; 'I' for Inactive)
REMARK       I    between atoms: N1_1  and  C1_2 
REMARK    1  A    between atoms: C1_2  and  C2_4 
REMARK    2  A    between atoms: C11_17  and  C12_18 
ROOT
HETATM    1  C2  UNL     1      -2.192   0.871  -1.002  1.00  0.00     0.151 A 
HETATM    2  C3  UNL     1      -2.517   2.341  -1.301  1.00  0.00     0.049 A 
HETATM    3  C4  UNL     1      -2.704   2.623   0.183  1.00  0.00     0.011 A 
HETATM    4  C5  UNL     1      -2.279   1.195   0.520  1.00  0.00     0.031 A 
HETATM    5  C6  UNL     1      -3.274   0.465   1.454  1.00  0.00     0.025 C 
HETATM    6  C7  UNL     1      -2.667  -0.771   2.138  1.00  0.00     0.164 C 
HETATM    7  S1  UNL     1      -2.661  -2.218   1.091  1.00  0.00     0.231 S 
HETATM    8  O2  UNL     1      -4.051  -2.459   0.574  1.00  0.00    -0.206 OA
HETATM    9  O3  UNL     1      -2.223  -3.410   1.893  1.00  0.00    -0.206 OA
HETATM   10  N2  UNL     1      -1.587  -2.000  -0.245  1.00  0.00    -0.282 N 
HETATM   11  C8  UNL     1      -0.290  -1.429  -0.079  1.00  0.00     0.075 A 
HETATM   12  C9  UNL     1       0.673  -2.130   0.657  1.00  0.00     0.034 A 
HETATM   13  C10 UNL     1       1.990  -1.675   0.717  1.00  0.00     0.014 A 
HETATM   14  C11 UNL     1       2.374  -0.515   0.024  1.00  0.00    -0.023 A 
HETATM   15  C18 UNL     1       1.404   0.190  -0.709  1.00  0.00     0.051 A 
HETATM   16  C19 UNL     1       0.071  -0.236  -0.744  1.00  0.00     0.098 A 
HETATM   17  O4  UNL     1      -0.851   0.578  -1.425  1.00  0.00    -0.328 OA
HETATM   18  H12 UNL     1      -1.830  -2.438  -1.159  1.00  0.00     0.178 HD
ENDROOT
BRANCH  14  19
HETATM   19  C12 UNL     1       3.779  -0.037   0.074  1.00  0.00    -0.026 A 
HETATM   20  C13 UNL     1       4.064   1.336   0.202  1.00  0.00     0.012 A 
HETATM   21  C14 UNL     1       5.388   1.783   0.249  1.00  0.00     0.001 A 
HETATM   22  C15 UNL     1       6.440   0.868   0.169  1.00  0.00     0.000 A 
HETATM   23  C16 UNL     1       6.171  -0.497   0.042  1.00  0.00     0.001 A 
HETATM   24  C17 UNL     1       4.848  -0.949  -0.004  1.00  0.00     0.012 A 
ENDBRANCH  14  19
BRANCH   1  25
HETATM   25  C1  UNL     1      -3.225  -0.017  -1.682  1.00  0.00     0.251 C 
HETATM   26  N1  UNL     1      -2.875  -0.780  -2.839  1.00  0.00    -0.368 N 
HETATM   27  H1  UNL     1      -1.908  -0.769  -3.229  1.00  0.00     0.159 HD
HETATM   28  H2  UNL     1      -3.598  -1.359  -3.321  1.00  0.00     0.159 HD
HETATM   29  O1  UNL     1      -4.434   0.018  -1.329  1.00  0.00    -0.270 OA
ENDBRANCH   1  25
TORSDOF 2
