REMARK  2 active torsions:
REMARK  status: ('A' for Active; 'I' for Inactive)
REMARK       I    between atoms: C1_2  and  N1_3 
REMARK    1  A    between atoms: C1_2  and  C15_19 
REMARK    2  A    between atoms: N1_3  and  C2_4 
ROOT
HETATM    1  O1  UNL     1      -0.480   0.568  -1.720  1.00  0.00    -0.272 OA
HETATM    2  C1  UNL     1      -0.825  -0.340  -0.915  1.00  0.00     0.231 C 
HETATM    3  N1  UNL     1       0.155  -1.254  -0.400  1.00  0.00    -0.327 N 
HETATM    4  H1  UNL     1      -0.166  -2.195  -0.087  1.00  0.00     0.169 HD
ENDROOT
BRANCH   3   5
HETATM    5  C2  UNL     1       1.563  -0.969  -0.366  1.00  0.00     0.035 A 
HETATM    6  C3  UNL     1       2.478  -2.004  -0.572  1.00  0.00     0.030 A 
HETATM    7  C4  UNL     1       3.851  -1.767  -0.495  1.00  0.00     0.015 A 
HETATM    8  C5  UNL     1       4.352  -0.481  -0.181  1.00  0.00    -0.008 A 
HETATM    9  C6  UNL     1       3.417   0.563   0.054  1.00  0.00     0.045 A 
HETATM   10  C14 UNL     1       5.745  -0.197  -0.073  1.00  0.00     0.002 A 
HETATM   11  C7  UNL     1       2.035   0.309  -0.050  1.00  0.00     0.047 A 
HETATM   12  C8  UNL     1       3.880   1.844   0.403  1.00  0.00     0.257 A 
HETATM   13  O2  UNL     1       3.067   2.785   0.620  1.00  0.00    -0.267 OA
HETATM   14  N2  UNL     1       5.211   2.086   0.516  1.00  0.00    -0.322 N 
HETATM   15  C9  UNL     1       6.144   1.118   0.292  1.00  0.00     0.046 A 
HETATM   16  H5  UNL     1       5.520   3.052   0.780  1.00  0.00     0.169 HD
HETATM   17  C10 UNL     1       7.507   1.432   0.421  1.00  0.00     0.030 A 
HETATM   18  C11 UNL     1       8.480   0.465   0.183  1.00  0.00     0.002 A 
HETATM   19  C12 UNL     1       8.106  -0.824  -0.189  1.00  0.00     0.001 A 
HETATM   20  C13 UNL     1       6.756  -1.159  -0.317  1.00  0.00     0.014 A 
ENDBRANCH   3   5
BRANCH   2  21
HETATM   21  C15 UNL     1      -2.274  -0.468  -0.496  1.00  0.00     0.116 C 
HETATM   22  C16 UNL     1      -3.218  -0.224  -1.688  1.00  0.00     0.058 C 
HETATM   23  C17 UNL     1      -4.675  -0.657  -1.534  1.00  0.00    -0.050 A 
HETATM   24  C18 UNL     1      -5.430  -0.701  -2.725  1.00  0.00     0.007 A 
HETATM   25  C22 UNL     1      -5.345  -0.922  -0.300  1.00  0.00    -0.042 A 
HETATM   26  C19 UNL     1      -6.787  -1.017  -2.710  1.00  0.00     0.001 A 
HETATM   27  C20 UNL     1      -7.428  -1.281  -1.504  1.00  0.00     0.001 A 
HETATM   28  C21 UNL     1      -6.713  -1.238  -0.312  1.00  0.00     0.008 A 
HETATM   29  C23 UNL     1      -4.679  -0.970   1.050  1.00  0.00     0.065 C 
HETATM   30  C24 UNL     1      -3.846   0.234   1.349  1.00  0.00    -0.041 A 
HETATM   31  C25 UNL     1      -4.283   1.132   2.331  1.00  0.00     0.008 A 
HETATM   32  C29 UNL     1      -2.645   0.465   0.649  1.00  0.00    -0.038 A 
HETATM   33  C26 UNL     1      -3.529   2.266   2.632  1.00  0.00     0.001 A 
HETATM   34  C27 UNL     1      -2.337   2.508   1.949  1.00  0.00     0.001 A 
HETATM   35  C28 UNL     1      -1.901   1.622   0.956  1.00  0.00     0.008 A 
ENDBRANCH   2  21
TORSDOF 2
