REMARK  3 active torsions:
REMARK  status: ('A' for Active; 'I' for Inactive)
REMARK    1  A    between atoms: O1_2  and  C2_3 
REMARK    2  A    between atoms: C6_8  and  C7_9 
REMARK       I    between atoms: C7_9  and  N2_11 
REMARK       I    between atoms: N2_11  and  C8_12 
REMARK    3  A    between atoms: C8_12  and  C9_14 
ROOT
HETATM    1  C7  UNL     1       0.603   1.727   0.315  1.00  0.00     0.258 C 
HETATM    2  O2  UNL     1       0.068   2.767   0.787  1.00  0.00    -0.267 OA
HETATM    3  N2  UNL     1      -0.220   0.649  -0.165  1.00  0.00    -0.293 N 
HETATM    4  C8  UNL     1      -1.624   0.525   0.121  1.00  0.00     0.235 C 
HETATM    5  O3  UNL     1      -2.218   1.428   0.769  1.00  0.00    -0.272 OA
HETATM    6  H7  UNL     1       0.212  -0.070  -0.786  1.00  0.00     0.172 HD
ENDROOT
BRANCH   1   7
HETATM    7  C6  UNL     1       2.082   1.647   0.238  1.00  0.00     0.037 A 
HETATM    8  C5  UNL     1       2.855   2.835   0.234  1.00  0.00     0.035 A 
HETATM    9  C4  UNL     1       4.253   2.761   0.169  1.00  0.00     0.099 A 
HETATM   10  N1  UNL     1       4.828   1.534   0.118  1.00  0.00    -0.313 N 
HETATM   11  C3  UNL     1       6.122   1.192   0.059  1.00  0.00     0.156 A 
HETATM   12  C18 UNL     1       4.130   0.386   0.131  1.00  0.00     0.137 A 
HETATM   13  C2  UNL     1       6.160  -0.189   0.038  1.00  0.00     0.182 A 
HETATM   14  N4  UNL     1       4.910  -0.713   0.084  1.00  0.00    -0.205 NA
HETATM   15  C17 UNL     1       2.739   0.395   0.194  1.00  0.00     0.068 A 
BRANCH  13  16
HETATM   16  O1  UNL     1       7.330  -0.947  -0.021  1.00  0.00    -0.338 OA
HETATM   17  C1  UNL     1       7.312  -2.369  -0.039  1.00  0.00     0.211 C 
ENDBRANCH  13  16
ENDBRANCH   1   7
BRANCH   4  18
HETATM   18  C9  UNL     1      -2.401  -0.654  -0.440  1.00  0.00     0.061 A 
HETATM   19  C10 UNL     1      -1.686  -1.973  -0.132  1.00  0.00     0.027 A 
HETATM   20  C11 UNL     1      -3.068  -1.753   0.425  1.00  0.00     0.006 A 
HETATM   21  C12 UNL     1      -3.516  -1.158   1.749  1.00  0.00     0.015 C 
HETATM   22  C13 UNL     1      -4.867  -0.443   1.514  1.00  0.00     0.103 C 
HETATM   23  C14 UNL     1      -4.895   0.522   0.334  1.00  0.00     0.219 C 
HETATM   24  O4  UNL     1      -5.179   1.731   0.549  1.00  0.00    -0.273 OA
HETATM   25  N3  UNL     1      -4.700   0.076  -1.034  1.00  0.00    -0.355 N 
HETATM   26  C15 UNL     1      -5.801   0.283  -1.975  1.00  0.00     0.152 C 
HETATM   27  C16 UNL     1      -3.386  -0.353  -1.570  1.00  0.00     0.144 C 
ENDBRANCH   4  18
TORSDOF 3
