REMARK  3 active torsions:
REMARK  status: ('A' for Active; 'I' for Inactive)
REMARK       I    between atoms: C1_2  and  N1_3 
REMARK    1  A    between atoms: C1_2  and  C15_19 
REMARK    2  A    between atoms: N1_3  and  C2_4 
REMARK    3  A    between atoms: C21_25  and  C22_26 
ROOT
HETATM    1  O1  UNL     1       0.221   1.037  -0.570  1.00  0.00    -0.267 OA
HETATM    2  C1  UNL     1       0.110  -0.071   0.022  1.00  0.00     0.256 C 
HETATM    3  N1  UNL     1       1.287  -0.745   0.508  1.00  0.00    -0.323 N 
HETATM    4  H1  UNL     1       1.201  -1.710   0.894  1.00  0.00     0.169 HD
ENDROOT
BRANCH   2   5
HETATM    5  C15 UNL     1      -1.241  -0.661   0.193  1.00  0.00     0.033 A 
HETATM    6  C16 UNL     1      -1.432  -2.050   0.232  1.00  0.00     0.018 A 
HETATM    7  C17 UNL     1      -2.711  -2.585   0.384  1.00  0.00     0.013 A 
HETATM    8  C18 UNL     1      -3.832  -1.751   0.506  1.00  0.00    -0.027 A 
HETATM    9  C19 UNL     1      -3.659  -0.349   0.428  1.00  0.00    -0.018 A 
HETATM   10  C30 UNL     1      -5.159  -2.395   0.656  1.00  0.00     0.013 C 
HETATM   11  C20 UNL     1      -2.363   0.179   0.276  1.00  0.00     0.027 A 
HETATM   12  C21 UNL     1      -4.845   0.596   0.434  1.00  0.00     0.174 C 
HETATM   13  N3  UNL     1      -5.581   0.446   1.691  1.00  0.00    -0.287 NA
HETATM   14  C28 UNL     1      -6.165  -0.635   2.118  1.00  0.00     0.111 C 
HETATM   15  C29 UNL     1      -6.179  -1.909   1.374  1.00  0.00     0.020 C 
BRANCH  12  16
HETATM   16  C22 UNL     1      -5.748   0.443  -0.788  1.00  0.00    -0.029 A 
HETATM   17  C23 UNL     1      -7.110   0.803  -0.722  1.00  0.00     0.009 A 
HETATM   18  C24 UNL     1      -7.929   0.705  -1.851  1.00  0.00     0.001 A 
HETATM   19  C25 UNL     1      -7.397   0.279  -3.068  1.00  0.00     0.000 A 
HETATM   20  C26 UNL     1      -6.040  -0.034  -3.163  1.00  0.00     0.001 A 
HETATM   21  C27 UNL     1      -5.217   0.059  -2.038  1.00  0.00     0.009 A 
ENDBRANCH  12  16
ENDBRANCH   2   5
BRANCH   3  22
HETATM   22  C2  UNL     1       2.613  -0.193   0.432  1.00  0.00     0.037 A 
HETATM   23  C3  UNL     1       2.856   1.160   0.698  1.00  0.00     0.030 A 
HETATM   24  C4  UNL     1       4.153   1.675   0.639  1.00  0.00     0.017 A 
HETATM   25  C5  UNL     1       5.254   0.842   0.324  1.00  0.00     0.002 A 
HETATM   26  C6  UNL     1       5.003  -0.535   0.084  1.00  0.00     0.048 A 
HETATM   27  C14 UNL     1       6.596   1.315   0.244  1.00  0.00    -0.008 A 
HETATM   28  C7  UNL     1       3.692  -1.036   0.150  1.00  0.00     0.060 A 
HETATM   29  N2  UNL     1       6.027  -1.381  -0.215  1.00  0.00    -0.322 N 
HETATM   30  C8  UNL     1       7.315  -0.958  -0.295  1.00  0.00     0.257 A 
HETATM   31  H5  UNL     1       5.827  -2.393  -0.389  1.00  0.00     0.169 HD
HETATM   32  O2  UNL     1       8.220  -1.793  -0.573  1.00  0.00    -0.267 OA
HETATM   33  C9  UNL     1       7.634   0.394  -0.071  1.00  0.00     0.043 A 
HETATM   34  C10 UNL     1       8.970   0.838  -0.152  1.00  0.00     0.018 A 
HETATM   35  C11 UNL     1       9.286   2.175   0.074  1.00  0.00     0.001 A 
HETATM   36  C12 UNL     1       8.281   3.087   0.380  1.00  0.00     0.001 A 
HETATM   37  C13 UNL     1       6.951   2.669   0.464  1.00  0.00     0.013 A 
ENDBRANCH   3  22
TORSDOF 3
