REMARK  2 active torsions:
REMARK  status: ('A' for Active; 'I' for Inactive)
REMARK    1  A    between atoms: C4_4  and  C5_5 
REMARK    2  A    between atoms: C10_10  and  N1_11 
ROOT
HETATM    1  N1  UNL     1       0.680  -0.449   0.530  1.00  0.00    -0.262 N 
HETATM    2  C11 UNL     1       0.949   0.400  -0.648  1.00  0.00     0.395 C 
HETATM    3  N2  UNL     1       1.480   1.725  -0.272  1.00  0.00     0.136 N 
HETATM    4  C12 UNL     1       2.577   1.675   0.714  1.00  0.00     0.326 C 
HETATM    5  C13 UNL     1       3.861   1.033   0.148  1.00  0.00     0.061 C 
HETATM    6  C14 UNL     1       3.910   1.061  -1.381  1.00  0.00     0.034 C 
HETATM    7  C15 UNL     1       3.092  -0.055  -1.973  1.00  0.00     0.015 C 
HETATM    8  C16 UNL     1       1.809  -0.334  -1.665  1.00  0.00     0.143 C 
HETATM    9  F1  UNL     1       1.234  -1.388  -2.304  1.00  0.00    -0.207 F 
HETATM   10  N3  UNL     1       2.153   0.967   1.915  1.00  0.00    -0.312 N 
HETATM   11  C17 UNL     1       1.294  -0.161   1.796  1.00  0.00     0.326 C 
HETATM   12  O1  UNL     1       1.056  -0.876   2.806  1.00  0.00    -0.247 OA
HETATM   13  H10 UNL     1       0.697   2.279   0.150  1.00  0.00     0.321 HD
HETATM   14  H17 UNL     1       2.581   1.205   2.838  1.00  0.00     0.166 HD
ENDROOT
BRANCH   1  15
HETATM   15  C10 UNL     1      -0.173  -1.601   0.400  1.00  0.00     0.054 A 
HETATM   16  C5  UNL     1      -1.568  -1.462   0.211  1.00  0.00     0.019 A 
HETATM   17  C6  UNL     1      -2.357  -2.612   0.045  1.00  0.00     0.016 A 
HETATM   18  C7  UNL     1      -1.774  -3.881   0.068  1.00  0.00     0.001 A 
HETATM   19  C8  UNL     1      -0.399  -4.016   0.263  1.00  0.00     0.002 A 
HETATM   20  C9  UNL     1       0.398  -2.882   0.430  1.00  0.00     0.031 A 
BRANCH  16  21
HETATM   21  C4  UNL     1      -2.217  -0.133   0.228  1.00  0.00     0.067 A 
HETATM   22  C3  UNL     1      -2.061   0.827   1.209  1.00  0.00     0.060 A 
HETATM   23  C2  UNL     1      -2.829   1.888   0.769  1.00  0.00     0.053 A 
HETATM   24  C1  UNL     1      -2.944   3.215   1.439  1.00  0.00     0.072 C 
HETATM   25  N5  UNL     1      -3.392   1.593  -0.420  1.00  0.00    -0.177 NA
HETATM   26  N4  UNL     1      -3.018   0.365  -0.741  1.00  0.00    -0.273 N 
HETATM   27  C18 UNL     1      -3.418  -0.293  -1.980  1.00  0.00     0.180 C 
ENDBRANCH  16  21
ENDBRANCH   1  15
TORSDOF 2
