REMARK  3 active torsions:
REMARK  status: ('A' for Active; 'I' for Inactive)
REMARK    1  A    between atoms: C2_2  and  C3_3 
REMARK    2  A    between atoms: C3_3  and  C4_4 
REMARK    3  A    between atoms: C3_3  and  N2_18 
REMARK       I    between atoms: C4_4  and  N1_6 
ROOT
HETATM    1  C4  UNL     1       0.210  -1.618   0.237  1.00  0.00     0.244 C 
HETATM    2  O1  UNL     1       0.029  -2.846   0.468  1.00  0.00    -0.271 OA
HETATM    3  N1  UNL     1      -0.654  -0.946  -0.714  1.00  0.00    -0.350 N 
HETATM    4  C5  UNL     1      -1.539  -1.747  -1.567  1.00  0.00     0.126 C 
HETATM    5  C6  UNL     1      -2.864  -2.000  -0.843  1.00  0.00     0.020 C 
HETATM    6  C7  UNL     1      -3.908  -0.887  -1.038  1.00  0.00     0.002 C 
HETATM    7  C8  UNL     1      -3.393   0.569  -1.108  1.00  0.00     0.011 C 
HETATM    8  C9  UNL     1      -2.208   0.942  -0.170  1.00  0.00    -0.013 A 
HETATM    9  C10 UNL     1      -0.825   0.514  -0.732  1.00  0.00     0.135 C 
HETATM   10  C11 UNL     1      -2.214   2.442   0.197  1.00  0.00     0.090 A 
HETATM   11  C12 UNL     1      -2.411   2.078   1.662  1.00  0.00     0.245 A 
HETATM   12  F1  UNL     1      -1.333   2.435   2.455  1.00  0.00    -0.206 F 
HETATM   13  F2  UNL     1      -3.620   2.524   2.171  1.00  0.00    -0.206 F 
HETATM   14  C13 UNL     1      -2.424   0.596   1.314  1.00  0.00     0.090 A 
ENDROOT
BRANCH   1  15
HETATM   15  C3  UNL     1       1.355  -0.899   0.931  1.00  0.00     0.201 C 
BRANCH  15  16
HETATM   16  C2  UNL     1       2.103  -1.812   1.928  1.00  0.00     0.032 C 
HETATM   17  C1  UNL     1       3.173  -1.054   2.714  1.00  0.00     0.007 C 
ENDBRANCH  15  16
BRANCH  15  18
HETATM   18  N2  UNL     1       2.289  -0.382  -0.073  1.00  0.00    -0.267 N 
HETATM   19  C14 UNL     1       2.775   0.874  -0.128  1.00  0.00     0.121 A 
HETATM   20  C15 UNL     1       3.645   0.944  -1.192  1.00  0.00    -0.026 A 
HETATM   21  C16 UNL     1       4.489   2.108  -1.590  1.00  0.00     0.051 C 
HETATM   22  C17 UNL     1       3.668  -0.327  -1.733  1.00  0.00     0.147 A 
HETATM   23  N3  UNL     1       2.831  -1.118  -1.034  1.00  0.00    -0.184 NA
ENDBRANCH  15  18
ENDBRANCH   1  15
TORSDOF 3
