REMARK  3 active torsions:
REMARK  status: ('A' for Active; 'I' for Inactive)
REMARK    1  A    between atoms: C1_2  and  C2_3 
REMARK    2  A    between atoms: C1_2  and  C21_22 
REMARK    3  A    between atoms: C28_30  and  C29_31 
ROOT
HETATM    1  C21 UNL     1       0.934  -0.697   0.859  1.00  0.00     0.017 A 
HETATM    2  C22 UNL     1       1.124   0.592   0.349  1.00  0.00     0.016 A 
HETATM    3  C23 UNL     1       2.154   0.842  -0.560  1.00  0.00     0.015 A 
HETATM    4  C24 UNL     1       3.029  -0.187  -0.958  1.00  0.00     0.001 A 
HETATM    5  C25 UNL     1       2.852  -1.484  -0.423  1.00  0.00     0.040 A 
HETATM    6  C26 UNL     1       1.799  -1.727   0.472  1.00  0.00     0.045 A 
HETATM    7  N1  UNL     1       3.704  -2.582  -0.796  1.00  0.00    -0.388 N 
HETATM    8  C27 UNL     1       5.172  -2.587  -0.705  1.00  0.00     0.134 C 
HETATM    9  C28 UNL     1       5.808  -1.192  -0.517  1.00  0.00     0.070 C 
HETATM   10  C35 UNL     1       5.444  -0.326  -1.709  1.00  0.00    -0.037 A 
HETATM   11  C36 UNL     1       6.444   0.012  -2.642  1.00  0.00     0.009 A 
HETATM   12  C37 UNL     1       6.138   0.774  -3.771  1.00  0.00     0.001 A 
HETATM   13  C38 UNL     1       4.833   1.203  -3.991  1.00  0.00     0.001 A 
HETATM   14  C39 UNL     1       3.826   0.877  -3.079  1.00  0.00     0.013 A 
HETATM   15  C40 UNL     1       4.115   0.116  -1.928  1.00  0.00    -0.017 A 
HETATM   16  H17 UNL     1       3.255  -3.521  -0.901  1.00  0.00     0.159 HD
ENDROOT
BRANCH   1  17
HETATM   17  C1  UNL     1      -0.133  -0.976   1.839  1.00  0.00     0.192 C 
HETATM   18  O1  UNL     1       0.209  -1.394   2.982  1.00  0.00    -0.287 OA
BRANCH  17  19
HETATM   19  C2  UNL     1      -1.579  -0.842   1.506  1.00  0.00     0.015 A 
HETATM   20  C3  UNL     1      -2.547  -1.203   2.459  1.00  0.00     0.016 A 
HETATM   21  C4  UNL     1      -3.907  -1.161   2.148  1.00  0.00     0.014 A 
HETATM   22  C5  UNL     1      -4.342  -0.745   0.877  1.00  0.00    -0.018 A 
HETATM   23  C6  UNL     1      -3.379  -0.351  -0.080  1.00  0.00    -0.042 A 
HETATM   24  C20 UNL     1      -5.797  -0.785   0.544  1.00  0.00    -0.014 A 
HETATM   25  C7  UNL     1      -2.010  -0.410   0.236  1.00  0.00     0.024 A 
HETATM   26  C8  UNL     1      -3.809   0.194  -1.415  1.00  0.00     0.078 C 
HETATM   27  C9  UNL     1      -4.514   1.502  -1.183  1.00  0.00    -0.043 A 
HETATM   28  C10 UNL     1      -3.888   2.706  -1.551  1.00  0.00     0.008 A 
HETATM   29  C14 UNL     1      -5.766   1.537  -0.525  1.00  0.00    -0.018 A 
HETATM   30  C11 UNL     1      -4.503   3.931  -1.292  1.00  0.00     0.001 A 
HETATM   31  C12 UNL     1      -5.745   3.970  -0.656  1.00  0.00     0.001 A 
HETATM   32  C13 UNL     1      -6.372   2.783  -0.272  1.00  0.00     0.013 A 
HETATM   33  C15 UNL     1      -6.466   0.281  -0.123  1.00  0.00    -0.014 A 
HETATM   34  C16 UNL     1      -7.836   0.148  -0.425  1.00  0.00     0.013 A 
HETATM   35  C17 UNL     1      -8.540  -1.003  -0.065  1.00  0.00     0.001 A 
HETATM   36  C18 UNL     1      -7.890  -2.042   0.596  1.00  0.00     0.001 A 
HETATM   37  C19 UNL     1      -6.531  -1.938   0.895  1.00  0.00     0.013 A 
ENDBRANCH  17  19
ENDBRANCH   1  17
BRANCH   9  38
HETATM   38  C29 UNL     1       5.543  -0.494   0.819  1.00  0.00    -0.048 A 
HETATM   39  C30 UNL     1       6.008   0.826   0.999  1.00  0.00     0.008 A 
HETATM   40  C31 UNL     1       5.837   1.482   2.222  1.00  0.00     0.001 A 
HETATM   41  C32 UNL     1       5.226   0.826   3.288  1.00  0.00     0.000 A 
HETATM   42  C33 UNL     1       4.776  -0.490   3.136  1.00  0.00     0.001 A 
HETATM   43  C34 UNL     1       4.949  -1.152   1.919  1.00  0.00     0.008 A 
ENDBRANCH   9  38
TORSDOF 3
