REMARK  3 active torsions:
REMARK  status: ('A' for Active; 'I' for Inactive)
REMARK    1  A    between atoms: C3_4  and  C4_5 
REMARK       I    between atoms: C4_5  and  N2_7 
REMARK       I    between atoms: N2_7  and  C5_8 
REMARK    2  A    between atoms: C5_8  and  C6_10 
REMARK    3  A    between atoms: C10_15  and  N4_16 
ROOT
HETATM    1  C6  UNL     1      -0.477   0.972   1.503  1.00  0.00     0.078 A 
HETATM    2  C7  UNL     1      -1.209   0.387   0.460  1.00  0.00     0.035 A 
HETATM    3  C8  UNL     1      -2.482  -0.174   0.679  1.00  0.00     0.003 A 
HETATM    4  C9  UNL     1      -3.019  -0.083   1.978  1.00  0.00     0.050 A 
HETATM    5  N3  UNL     1      -2.292   0.484   2.978  1.00  0.00    -0.234 NA
HETATM    6  C10 UNL     1      -1.045   0.987   2.793  1.00  0.00     0.137 A 
HETATM    7  C11 UNL     1      -4.430  -0.471   2.264  1.00  0.00     0.087 C 
HETATM    8  C12 UNL     1      -5.343   0.400   1.408  1.00  0.00     0.181 C 
HETATM    9  O3  UNL     1      -5.538  -0.167   0.119  1.00  0.00    -0.350 OA
HETATM   10  C13 UNL     1      -4.590  -0.809  -0.698  1.00  0.00     0.080 A 
HETATM   11  C14 UNL     1      -5.113  -1.442  -1.835  1.00  0.00     0.037 A 
HETATM   12  C15 UNL     1      -4.299  -2.171  -2.697  1.00  0.00     0.003 A 
HETATM   13  C16 UNL     1      -2.939  -2.286  -2.434  1.00  0.00     0.001 A 
HETATM   14  C17 UNL     1      -2.388  -1.651  -1.322  1.00  0.00     0.015 A 
HETATM   15  C18 UNL     1      -3.182  -0.876  -0.446  1.00  0.00     0.009 A 
ENDROOT
BRANCH   1  16
HETATM   16  C5  UNL     1       0.837   1.584   1.204  1.00  0.00     0.262 C 
HETATM   17  N2  UNL     1       1.766   0.910   0.337  1.00  0.00    -0.288 N 
HETATM   18  C4  UNL     1       3.000   1.488  -0.123  1.00  0.00     0.279 C 
HETATM   19  H4  UNL     1       1.534  -0.064   0.038  1.00  0.00     0.172 HD
HETATM   20  O1  UNL     1       3.308   2.668   0.197  1.00  0.00    -0.265 OA
HETATM   21  O2  UNL     1       1.123   2.710   1.695  1.00  0.00    -0.267 OA
BRANCH  18  22
HETATM   22  C3  UNL     1       3.911   0.701  -0.980  1.00  0.00     0.148 A 
HETATM   23  N1  UNL     1       3.654  -0.566  -1.369  1.00  0.00    -0.228 NA
HETATM   24  C2  UNL     1       4.718  -0.902  -2.128  1.00  0.00     0.101 A 
HETATM   25  C1  UNL     1       4.896  -2.254  -2.734  1.00  0.00     0.091 C 
HETATM   26  N5  UNL     1       5.636   0.080  -2.219  1.00  0.00    -0.346 N 
HETATM   27  C19 UNL     1       5.131   1.098  -1.504  1.00  0.00     0.041 A 
HETATM   28  H19 UNL     1       6.547   0.051  -2.731  1.00  0.00     0.167 HD
HETATM   29  C20 UNL     1       5.819   2.415  -1.324  1.00  0.00     0.071 C 
ENDBRANCH  18  22
ENDBRANCH   1  16
BRANCH   6  30
HETATM   30  N4  UNL     1      -0.336   1.493   3.930  1.00  0.00    -0.383 N 
HETATM   31  H6  UNL     1       0.684   1.707   3.901  1.00  0.00     0.157 HD
HETATM   32  H7  UNL     1      -0.817   1.554   4.854  1.00  0.00     0.157 HD
ENDBRANCH   6  30
TORSDOF 3
