REMARK  1 active torsions:
REMARK  status: ('A' for Active; 'I' for Inactive)
REMARK    1  A    between atoms: C1_2  and  C2_3 
REMARK       I    between atoms: C1_2  and  N2_13 
ROOT
HETATM    1  O1  UNL     1      -0.717  -0.839   1.617  1.00  0.00    -0.267 OA
HETATM    2  C1  UNL     1      -0.887  -0.478   0.422  1.00  0.00     0.259 C 
HETATM    3  N2  UNL     1       0.250  -0.016  -0.322  1.00  0.00    -0.313 N 
HETATM    4  C10 UNL     1       0.777  -0.885  -1.390  1.00  0.00     0.137 C 
HETATM    5  C11 UNL     1       2.106  -0.393  -1.973  1.00  0.00     0.060 C 
HETATM    6  C12 UNL     1       3.189  -0.513  -0.934  1.00  0.00    -0.045 A 
HETATM    7  C13 UNL     1       3.182   0.314   0.211  1.00  0.00    -0.017 A 
HETATM    8  C14 UNL     1       4.183   0.130   1.189  1.00  0.00     0.013 A 
HETATM    9  C15 UNL     1       5.190  -0.824   1.013  1.00  0.00     0.001 A 
HETATM   10  C16 UNL     1       5.205  -1.619  -0.134  1.00  0.00     0.001 A 
HETATM   11  C17 UNL     1       4.202  -1.478  -1.095  1.00  0.00     0.008 A 
HETATM   12  C18 UNL     1       2.193   1.420   0.358  1.00  0.00     0.002 A 
HETATM   13  C19 UNL     1       2.652   2.680   0.794  1.00  0.00     0.014 A 
HETATM   14  C20 UNL     1       1.775   3.757   0.924  1.00  0.00     0.001 A 
HETATM   15  C21 UNL     1       0.433   3.609   0.595  1.00  0.00     0.002 A 
HETATM   16  C22 UNL     1      -0.042   2.373   0.165  1.00  0.00     0.030 A 
HETATM   17  C23 UNL     1       0.816   1.264   0.042  1.00  0.00     0.048 A 
ENDROOT
BRANCH   2  18
HETATM   18  C2  UNL     1      -2.249  -0.478  -0.181  1.00  0.00     0.041 A 
HETATM   19  C3  UNL     1      -2.478   0.139  -1.437  1.00  0.00     0.018 A 
HETATM   20  C4  UNL     1      -3.764   0.171  -2.009  1.00  0.00     0.002 A 
HETATM   21  C5  UNL     1      -4.852  -0.403  -1.338  1.00  0.00     0.018 A 
HETATM   22  C6  UNL     1      -4.621  -1.002  -0.101  1.00  0.00     0.041 A 
HETATM   23  C7  UNL     1      -3.365  -1.043   0.478  1.00  0.00    -0.009 A 
HETATM   24  C9  UNL     1      -5.553  -1.604   0.822  1.00  0.00     0.252 A 
HETATM   25  C8  UNL     1      -3.443  -1.707   1.835  1.00  0.00     0.163 A 
HETATM   26  N1  UNL     1      -4.866  -2.026   1.989  1.00  0.00    -0.353 N 
HETATM   27  H6  UNL     1      -5.302  -2.489   2.820  1.00  0.00     0.163 HD
HETATM   28  O2  UNL     1      -6.798  -1.710   0.656  1.00  0.00    -0.268 OA
ENDBRANCH   2  18
TORSDOF 1
