REMARK  2 active torsions:
REMARK  status: ('A' for Active; 'I' for Inactive)
REMARK       I    between atoms: C2_2  and  N1_4 
REMARK    1  A    between atoms: C8_10  and  C9_11 
REMARK       I    between atoms: C9_11  and  N2_13 
REMARK    2  A    between atoms: C12_16  and  C13_17 
ROOT
HETATM    1  C9  UNL     1      -1.325  -1.409  -0.246  1.00  0.00     0.247 C 
HETATM    2  O2  UNL     1      -1.860  -2.362   0.383  1.00  0.00    -0.271 OA
HETATM    3  N2  UNL     1       0.075  -1.145  -0.072  1.00  0.00    -0.316 N 
HETATM    4  C10 UNL     1       0.969  -1.501  -1.190  1.00  0.00     0.133 C 
HETATM    5  C11 UNL     1       2.459  -1.304  -0.871  1.00  0.00     0.030 C 
HETATM    6  C12 UNL     1       2.877   0.185  -0.939  1.00  0.00     0.027 C 
HETATM    7  C19 UNL     1       1.896   1.156  -0.241  1.00  0.00     0.050 C 
HETATM    8  C20 UNL     1       1.386   0.640   1.080  1.00  0.00    -0.030 A 
HETATM    9  C21 UNL     1       1.758   1.293   2.268  1.00  0.00     0.009 A 
HETATM   10  C22 UNL     1       1.289   0.839   3.501  1.00  0.00     0.001 A 
HETATM   11  C23 UNL     1       0.442  -0.266   3.562  1.00  0.00     0.002 A 
HETATM   12  C24 UNL     1       0.057  -0.920   2.390  1.00  0.00     0.030 A 
HETATM   13  C25 UNL     1       0.518  -0.478   1.135  1.00  0.00     0.043 A 
ENDROOT
BRANCH   1  14
HETATM   14  C8  UNL     1      -2.146  -0.558  -1.188  1.00  0.00     0.180 C 
HETATM   15  N1  UNL     1      -3.529  -1.018  -1.243  1.00  0.00    -0.338 N 
HETATM   16  C2  UNL     1      -3.935  -2.212  -1.938  1.00  0.00     0.216 C 
HETATM   17  C3  UNL     1      -4.464  -0.085  -0.631  1.00  0.00     0.135 C 
HETATM   18  C1  UNL     1      -5.372  -2.634  -1.975  1.00  0.00     0.117 C 
HETATM   19  O1  UNL     1      -3.073  -2.921  -2.526  1.00  0.00    -0.274 OA
HETATM   20  C4  UNL     1      -3.598   1.023   0.003  1.00  0.00    -0.029 C 
HETATM   21  C5  UNL     1      -4.214   2.417  -0.227  1.00  0.00     0.016 C 
HETATM   22  C6  UNL     1      -3.436   0.781   1.519  1.00  0.00     0.016 C 
HETATM   23  C7  UNL     1      -2.234   0.894  -0.705  1.00  0.00     0.045 C 
ENDBRANCH   1  14
BRANCH   6  24
HETATM   24  C13 UNL     1       4.318   0.404  -0.491  1.00  0.00    -0.015 A 
HETATM   25  C14 UNL     1       5.217   1.036  -1.374  1.00  0.00     0.011 A 
HETATM   26  C15 UNL     1       6.540   1.277  -0.995  1.00  0.00     0.001 A 
HETATM   27  C16 UNL     1       6.986   0.900   0.271  1.00  0.00     0.003 A 
HETATM   28  C17 UNL     1       6.109   0.281   1.162  1.00  0.00     0.043 A 
HETATM   29  C18 UNL     1       4.782   0.034   0.794  1.00  0.00     0.123 A 
HETATM   30  F1  UNL     1       3.970  -0.566   1.697  1.00  0.00    -0.206 F 
ENDBRANCH   6  24
TORSDOF 2
