REMARK  1 active torsions:
REMARK  status: ('A' for Active; 'I' for Inactive)
REMARK       I    between atoms: C1_2  and  N1_3 
REMARK    1  A    between atoms: C1_2  and  C12_18 
REMARK       I    between atoms: N1_3  and  C2_4 
REMARK       I    between atoms: C2_4  and  N2_6 
REMARK       I    between atoms: N2_6  and  C3_7 
REMARK       I    between atoms: C3_7  and  N3_9 
ROOT
HETATM    1  C12 UNL     1      -0.741   1.176  -2.799  1.00  0.00     0.033 A 
HETATM    2  C13 UNL     1      -1.347   1.681  -1.646  1.00  0.00     0.031 A 
HETATM    3  C14 UNL     1      -2.247   0.900  -0.886  1.00  0.00     0.003 A 
HETATM    4  C15 UNL     1      -2.473  -0.460  -1.275  1.00  0.00     0.045 A 
HETATM    5  C16 UNL     1      -1.804  -0.960  -2.403  1.00  0.00     0.031 A 
HETATM    6  C17 UNL     1      -0.974  -0.149  -3.171  1.00  0.00     0.019 A 
HETATM    7  N4  UNL     1      -3.320  -1.384  -0.567  1.00  0.00    -0.326 N 
HETATM    8  C18 UNL     1      -4.401  -1.011   0.286  1.00  0.00     0.226 C 
HETATM    9  O4  UNL     1      -5.379  -0.365  -0.175  1.00  0.00    -0.273 OA
HETATM   10  C19 UNL     1      -4.331  -1.373   1.740  1.00  0.00     0.142 C 
HETATM   11  C20 UNL     1      -2.925  -1.149   2.251  1.00  0.00    -0.038 A 
HETATM   12  C21 UNL     1      -2.225  -2.212   2.849  1.00  0.00     0.008 A 
HETATM   13  C22 UNL     1      -0.900  -2.044   3.267  1.00  0.00     0.001 A 
HETATM   14  C23 UNL     1      -0.250  -0.819   3.076  1.00  0.00     0.001 A 
HETATM   15  C24 UNL     1      -0.935   0.246   2.482  1.00  0.00     0.013 A 
HETATM   16  C25 UNL     1      -2.269   0.096   2.070  1.00  0.00    -0.018 A 
HETATM   17  C26 UNL     1      -3.000   1.270   1.558  1.00  0.00    -0.014 A 
HETATM   18  C27 UNL     1      -3.762   2.013   2.479  1.00  0.00     0.013 A 
HETATM   19  C28 UNL     1      -4.506   3.112   2.052  1.00  0.00     0.001 A 
HETATM   20  C29 UNL     1      -4.503   3.482   0.703  1.00  0.00     0.001 A 
HETATM   21  C30 UNL     1      -3.775   2.738  -0.227  1.00  0.00     0.013 A 
HETATM   22  C31 UNL     1      -3.013   1.622   0.178  1.00  0.00    -0.013 A 
HETATM   23  H14 UNL     1      -3.024  -2.388  -0.537  1.00  0.00     0.169 HD
ENDROOT
BRANCH   1  24
HETATM   24  C1  UNL     1       0.015   2.067  -3.694  1.00  0.00     0.259 C 
HETATM   25  O1  UNL     1      -0.292   2.119  -4.918  1.00  0.00    -0.267 OA
HETATM   26  N1  UNL     1       0.999   2.970  -3.179  1.00  0.00    -0.275 N 
HETATM   27  C2  UNL     1       2.294   2.546  -2.725  1.00  0.00     0.331 C 
HETATM   28  H1  UNL     1       0.822   3.992  -3.288  1.00  0.00     0.173 HD
HETATM   29  O2  UNL     1       3.229   3.387  -2.706  1.00  0.00    -0.246 OA
HETATM   30  N2  UNL     1       2.529   1.194  -2.286  1.00  0.00    -0.260 N 
HETATM   31  C3  UNL     1       3.745   0.764  -1.640  1.00  0.00     0.331 C 
HETATM   32  H2  UNL     1       1.765   0.498  -2.371  1.00  0.00     0.175 HD
HETATM   33  O3  UNL     1       4.746   1.527  -1.625  1.00  0.00    -0.246 OA
HETATM   34  N3  UNL     1       3.833  -0.544  -1.047  1.00  0.00    -0.299 N 
HETATM   35  C4  UNL     1       2.929  -1.653  -1.359  1.00  0.00     0.138 C 
HETATM   36  C11 UNL     1       4.660  -0.936   0.042  1.00  0.00     0.045 A 
HETATM   37  C5  UNL     1       3.449  -2.859  -0.553  1.00  0.00     0.061 C 
HETATM   38  C6  UNL     1       4.424  -2.241   0.385  1.00  0.00    -0.030 A 
HETATM   39  C7  UNL     1       4.989  -2.811   1.528  1.00  0.00     0.009 A 
HETATM   40  C8  UNL     1       5.789  -2.003   2.355  1.00  0.00     0.001 A 
HETATM   41  C9  UNL     1       6.001  -0.650   2.028  1.00  0.00     0.002 A 
HETATM   42  C10 UNL     1       5.439  -0.105   0.859  1.00  0.00     0.030 A 
ENDBRANCH   1  24
TORSDOF 1
