REMARK  2 active torsions:
REMARK  status: ('A' for Active; 'I' for Inactive)
REMARK    1  A    between atoms: C5_5  and  N1_6 
REMARK       I    between atoms: N1_6  and  C6_7 
REMARK    2  A    between atoms: C6_7  and  C7_9 
ROOT
HETATM    1  C7  UNL     1       0.332   0.271   1.639  1.00  0.00     0.033 A 
HETATM    2  C8  UNL     1      -0.293  -0.982   1.719  1.00  0.00     0.018 A 
HETATM    3  C9  UNL     1      -1.099  -1.434   0.678  1.00  0.00     0.014 A 
HETATM    4  C10 UNL     1      -1.333  -0.627  -0.443  1.00  0.00    -0.011 A 
HETATM    5  C11 UNL     1      -0.803   0.691  -0.486  1.00  0.00     0.022 A 
HETATM    6  C12 UNL     1       0.053   1.106   0.548  1.00  0.00     0.033 A 
HETATM    7  C13 UNL     1      -1.077   1.652  -1.594  1.00  0.00     0.164 C 
HETATM    8  O2  UNL     1      -0.147   2.419  -1.968  1.00  0.00    -0.292 OA
HETATM    9  C14 UNL     1      -2.413   1.779  -2.286  1.00  0.00     0.123 C 
HETATM   10  C15 UNL     1      -3.584   1.494  -1.370  1.00  0.00    -0.040 A 
HETATM   11  C16 UNL     1      -4.219   2.546  -0.691  1.00  0.00     0.008 A 
HETATM   12  C17 UNL     1      -5.334   2.298   0.115  1.00  0.00     0.001 A 
HETATM   13  C18 UNL     1      -5.824   0.998   0.254  1.00  0.00     0.001 A 
HETATM   14  C19 UNL     1      -5.199  -0.060  -0.412  1.00  0.00     0.013 A 
HETATM   15  C20 UNL     1      -4.066   0.179  -1.206  1.00  0.00    -0.018 A 
HETATM   16  C21 UNL     1      -3.391  -0.950  -1.872  1.00  0.00    -0.014 A 
HETATM   17  C22 UNL     1      -4.084  -1.691  -2.841  1.00  0.00     0.013 A 
HETATM   18  C23 UNL     1      -3.434  -2.703  -3.549  1.00  0.00     0.001 A 
HETATM   19  C24 UNL     1      -2.095  -2.996  -3.279  1.00  0.00     0.001 A 
HETATM   20  C25 UNL     1      -1.405  -2.283  -2.295  1.00  0.00     0.013 A 
HETATM   21  C26 UNL     1      -2.042  -1.251  -1.585  1.00  0.00    -0.014 A 
ENDROOT
BRANCH   1  22
HETATM   22  C6  UNL     1       1.335   0.664   2.653  1.00  0.00     0.256 C 
HETATM   23  N1  UNL     1       2.511   1.384   2.264  1.00  0.00    -0.320 N 
HETATM   24  H6  UNL     1       2.391   2.354   1.894  1.00  0.00     0.169 HD
HETATM   25  O1  UNL     1       1.233   0.248   3.838  1.00  0.00    -0.267 OA
BRANCH  23  26
HETATM   26  C5  UNL     1       3.820   0.784   2.282  1.00  0.00     0.073 A 
HETATM   27  C4  UNL     1       3.995  -0.583   2.586  1.00  0.00     0.033 A 
HETATM   28  C3  UNL     1       5.267  -1.161   2.570  1.00  0.00     0.009 A 
HETATM   29  C2  UNL     1       6.390  -0.386   2.258  1.00  0.00    -0.059 A 
HETATM   30  C1  UNL     1       7.747  -1.022   2.184  1.00  0.00     0.048 C 
HETATM   31  C28 UNL     1       6.222   0.969   1.927  1.00  0.00     0.051 A 
HETATM   32  C27 UNL     1       4.949   1.552   1.944  1.00  0.00     0.143 A 
HETATM   33  F1  UNL     1       4.811   2.860   1.613  1.00  0.00    -0.204 F 
ENDBRANCH  23  26
ENDBRANCH   1  22
TORSDOF 2
