REMARK  8 active torsions:
REMARK  status: ('A' for Active; 'I' for Inactive)
REMARK       I    between atoms: C1_2  and  N1_3 
REMARK    1  A    between atoms: C1_2  and  C32_34 
REMARK    2  A    between atoms: N1_3  and  C2_4 
REMARK    3  A    between atoms: C5_7  and  C31_33 
REMARK    4  A    between atoms: C6_8  and  C8_10 
REMARK    5  A    between atoms: C13_15  and  C14_16 
REMARK    6  A    between atoms: C19_21  and  C20_22 
REMARK    7  A    between atoms: C25_27  and  C26_28 
REMARK    8  A    between atoms: C39_41  and  O2_42 
ROOT
HETATM    1  C2  UNL     1      -0.966  -0.512  -0.717  1.00  0.00     0.035 C 
HETATM    2  C3  UNL     1      -1.582  -1.527  -1.472  1.00  0.00     0.030 C 
HETATM    3  C4  UNL     1      -2.905  -1.386  -1.899  1.00  0.00     0.015 C 
HETATM    4  C5  UNL     1      -3.649  -0.252  -1.545  1.00  0.00    -0.014 C 
HETATM    5  C6  UNL     1      -3.083   0.709  -0.672  1.00  0.00    -0.012 C 
HETATM    6  C7  UNL     1      -1.730   0.592  -0.312  1.00  0.00     0.042 C 
ENDROOT
BRANCH   1   7
HETATM    7  N1  UNL     1       0.420  -0.571  -0.331  1.00  0.00    -0.323 N 
HETATM    8  C1  UNL     1       1.479  -1.068  -1.173  1.00  0.00     0.256 C 
HETATM    9  O1  UNL     1       1.220  -1.882  -2.095  1.00  0.00    -0.267 OA
HETATM   10  H1  UNL     1       0.679   0.029   0.482  1.00  0.00     0.169 HD
BRANCH   8  11
HETATM   11  C32 UNL     1       2.884  -0.602  -1.017  1.00  0.00     0.032 A 
HETATM   12  C33 UNL     1       3.747  -0.655  -2.119  1.00  0.00     0.018 A 
HETATM   13  C34 UNL     1       5.052  -0.176  -2.026  1.00  0.00     0.014 A 
HETATM   14  C35 UNL     1       5.532   0.373  -0.829  1.00  0.00    -0.019 A 
HETATM   15  C36 UNL     1       4.677   0.433   0.304  1.00  0.00    -0.043 A 
HETATM   16  C51 UNL     1       6.951   0.804  -0.807  1.00  0.00    -0.014 A 
HETATM   17  C37 UNL     1       3.367  -0.075   0.195  1.00  0.00     0.025 A 
HETATM   18  C38 UNL     1       5.048   1.150   1.598  1.00  0.00     0.076 C 
HETATM   19  C39 UNL     1       6.377   0.728   2.276  1.00  0.00     0.156 C 
HETATM   20  C40 UNL     1       6.756  -0.711   1.971  1.00  0.00    -0.018 A 
HETATM   21  C41 UNL     1       6.288  -1.760   2.782  1.00  0.00     0.011 A 
HETATM   22  C45 UNL     1       7.536  -1.016   0.831  1.00  0.00    -0.016 A 
HETATM   23  C42 UNL     1       6.636  -3.084   2.496  1.00  0.00     0.001 A 
HETATM   24  C43 UNL     1       7.451  -3.374   1.400  1.00  0.00     0.001 A 
HETATM   25  C44 UNL     1       7.899  -2.346   0.568  1.00  0.00     0.013 A 
HETATM   26  C46 UNL     1       7.930   0.054  -0.112  1.00  0.00    -0.014 A 
HETATM   27  C47 UNL     1       9.287   0.386  -0.249  1.00  0.00     0.013 A 
HETATM   28  C48 UNL     1       9.673   1.454  -1.060  1.00  0.00     0.001 A 
HETATM   29  C49 UNL     1       8.710   2.202  -1.739  1.00  0.00     0.001 A 
HETATM   30  C50 UNL     1       7.356   1.871  -1.629  1.00  0.00     0.013 A 
BRANCH  19  31
HETATM   31  O2  UNL     1       6.290   0.914   3.668  1.00  0.00    -0.391 OA
HETATM   32  H27 UNL     1       6.244   1.894   3.826  1.00  0.00     0.210 HD
ENDBRANCH  19  31
ENDBRANCH   8  11
ENDBRANCH   1   7
BRANCH   5  33
HETATM   33  C8  UNL     1      -3.795   1.877  -0.373  1.00  0.00    -0.014 C 
HETATM   34  C9  UNL     1      -3.340   3.044  -1.021  1.00  0.00     0.013 C 
HETATM   35  C10 UNL     1      -4.220   4.078  -1.322  1.00  0.00     0.001 C 
HETATM   36  C11 UNL     1      -5.568   3.953  -1.014  1.00  0.00     0.001 C 
HETATM   37  C12 UNL     1      -6.016   2.855  -0.284  1.00  0.00     0.013 C 
HETATM   38  C13 UNL     1      -5.123   1.847   0.161  1.00  0.00    -0.014 C 
BRANCH  38  39
HETATM   39  C14 UNL     1      -5.464   1.103   1.344  1.00  0.00    -0.014 C 
HETATM   40  C15 UNL     1      -6.094   1.874   2.364  1.00  0.00     0.013 C 
HETATM   41  C16 UNL     1      -6.083   1.491   3.696  1.00  0.00     0.001 C 
HETATM   42  C17 UNL     1      -5.445   0.329   4.074  1.00  0.00     0.001 C 
HETATM   43  C18 UNL     1      -4.904  -0.508   3.109  1.00  0.00     0.013 C 
HETATM   44  C19 UNL     1      -4.969  -0.209   1.714  1.00  0.00    -0.014 C 
BRANCH  44  45
HETATM   45  C20 UNL     1      -4.841  -1.346   0.841  1.00  0.00    -0.014 C 
HETATM   46  C21 UNL     1      -3.994  -2.414   1.238  1.00  0.00     0.013 C 
HETATM   47  C22 UNL     1      -4.231  -3.724   0.822  1.00  0.00     0.001 C 
HETATM   48  C23 UNL     1      -5.302  -4.006  -0.016  1.00  0.00     0.001 C 
HETATM   49  C24 UNL     1      -6.052  -2.962  -0.549  1.00  0.00     0.013 C 
HETATM   50  C25 UNL     1      -5.767  -1.621  -0.218  1.00  0.00    -0.014 C 
BRANCH  50  51
HETATM   51  C26 UNL     1      -6.045  -0.695  -1.230  1.00  0.00    -0.014 A 
HETATM   52  C27 UNL     1      -7.368  -0.502  -1.666  1.00  0.00     0.013 A 
HETATM   53  C28 UNL     1      -7.638   0.325  -2.758  1.00  0.00     0.001 A 
HETATM   54  C29 UNL     1      -6.593   0.933  -3.455  1.00  0.00     0.001 A 
HETATM   55  C30 UNL     1      -5.269   0.705  -3.072  1.00  0.00     0.013 A 
HETATM   56  C31 UNL     1      -4.981  -0.125  -1.978  1.00  0.00    -0.014 A 
ENDBRANCH  50  51
ENDBRANCH  44  45
ENDBRANCH  38  39
ENDBRANCH   5  33
TORSDOF 8
