REMARK  4 active torsions:
REMARK  status: ('A' for Active; 'I' for Inactive)
REMARK    1  A    between atoms: C5_5  and  C22_26 
REMARK    2  A    between atoms: C13_15  and  C14_16 
REMARK    3  A    between atoms: C14_16  and  O2_17 
REMARK    4  A    between atoms: C20_23  and  O3_24 
ROOT
HETATM    1  C1  UNL     1       0.029   2.325  -2.240  1.00  0.00     0.051 C 
HETATM    2  C2  UNL     1      -0.948   1.706  -1.280  1.00  0.00    -0.027 C 
HETATM    3  C3  UNL     1      -1.848   0.824  -1.776  1.00  0.00     0.010 C 
HETATM    4  C4  UNL     1      -2.894   0.082  -1.023  1.00  0.00     0.015 C 
HETATM    5  C5  UNL     1      -2.650  -1.106  -0.412  1.00  0.00     0.003 C 
HETATM    6  C6  UNL     1      -1.251  -1.446  -0.084  1.00  0.00    -0.021 C 
HETATM    7  C7  UNL     1      -0.467  -2.267  -0.909  1.00  0.00     0.013 C 
HETATM    8  C8  UNL     1       0.932  -2.147  -0.868  1.00  0.00     0.011 C 
HETATM    9  C9  UNL     1       1.516  -1.075  -0.163  1.00  0.00    -0.025 C 
HETATM   10  C10 UNL     1       0.689  -0.219   0.572  1.00  0.00     0.049 C 
HETATM   11  C11 UNL     1      -0.628  -0.603   0.823  1.00  0.00     0.043 C 
HETATM   12  N1  UNL     1       1.076   1.149   0.778  1.00  0.00    -0.289 N 
HETATM   13  C12 UNL     1       2.448   1.537   0.605  1.00  0.00     0.240 C 
HETATM   14  O1  UNL     1       2.822   2.675   1.002  1.00  0.00    -0.272 OA
HETATM   15  C13 UNL     1       3.432   0.641  -0.156  1.00  0.00     0.070 C 
HETATM   16  C15 UNL     1       4.797   0.614   0.553  1.00  0.00     0.022 C 
HETATM   17  C16 UNL     1       4.687  -0.465   1.619  1.00  0.00     0.002 C 
HETATM   18  C17 UNL     1       3.641  -1.459   1.123  1.00  0.00     0.011 C 
HETATM   19  C18 UNL     1       3.010  -0.853  -0.140  1.00  0.00     0.041 C 
HETATM   20  C19 UNL     1       0.052   2.159   0.950  1.00  0.00     0.137 C 
HETATM   21  C20 UNL     1      -1.000   2.280   0.092  1.00  0.00     0.090 C 
ENDROOT
BRANCH   5  22
HETATM   22  C22 UNL     1      -3.764  -1.969   0.068  1.00  0.00     0.067 A 
HETATM   23  C23 UNL     1      -3.517  -3.143   0.806  1.00  0.00     0.032 A 
HETATM   24  C24 UNL     1      -4.589  -3.928   1.235  1.00  0.00     0.004 A 
HETATM   25  C25 UNL     1      -5.896  -3.547   0.932  1.00  0.00     0.019 A 
HETATM   26  C26 UNL     1      -6.112  -2.381   0.198  1.00  0.00     0.117 A 
HETATM   27  N2  UNL     1      -5.056  -1.629  -0.212  1.00  0.00    -0.260 NA
ENDBRANCH   5  22
BRANCH  21  28
HETATM   28  O3  UNL     1      -2.149   3.014   0.426  1.00  0.00    -0.354 OA
HETATM   29  C21 UNL     1      -2.399   3.602   1.700  1.00  0.00     0.210 C 
ENDBRANCH  21  28
BRANCH  15  30
HETATM   30  C14 UNL     1       3.575   1.146  -1.609  1.00  0.00     0.184 C 
BRANCH  30  31
HETATM   31  O2  UNL     1       3.995   2.484  -1.631  1.00  0.00    -0.400 OA
HETATM   32  H11 UNL     1       4.024   2.749  -2.587  1.00  0.00     0.209 HD
ENDBRANCH  30  31
ENDBRANCH  15  30
TORSDOF 4
