REMARK  1 active torsions:
REMARK  status: ('A' for Active; 'I' for Inactive)
REMARK    1  A    between atoms: C7_9  and  N3_10 
ROOT
HETATM    1  C1  UNL     1      -0.446  -1.288  -1.366  1.00  0.00     0.052 C 
HETATM    2  C2  UNL     1      -1.679  -0.555  -0.912  1.00  0.00    -0.015 A 
HETATM    3  C3  UNL     1      -2.865  -0.663  -1.653  1.00  0.00     0.034 A 
HETATM    4  C4  UNL     1      -4.017   0.012  -1.238  1.00  0.00     0.062 A 
HETATM    5  C5  UNL     1      -5.239  -0.103  -1.990  1.00  0.00     0.101 C 
HETATM    6  N1  UNL     1      -6.221  -0.196  -2.596  1.00  0.00    -0.191 NA
HETATM    7  C6  UNL     1      -3.969   0.799  -0.083  1.00  0.00     0.141 A 
HETATM    8  N2  UNL     1      -2.809   0.911   0.614  1.00  0.00    -0.241 NA
HETATM    9  C7  UNL     1      -1.669   0.272   0.231  1.00  0.00     0.131 A 
ENDROOT
BRANCH   9  10
HETATM   10  N3  UNL     1      -0.475   0.453   1.008  1.00  0.00    -0.359 N 
HETATM   11  C8  UNL     1      -0.424  -0.161   2.339  1.00  0.00     0.151 C 
HETATM   12  C9  UNL     1       0.964  -0.081   2.974  1.00  0.00     0.195 C 
HETATM   13  O1  UNL     1       1.936  -0.739   2.167  1.00  0.00    -0.349 OA
HETATM   14  C10 UNL     1       2.420  -0.297   0.924  1.00  0.00     0.076 A 
HETATM   15  C11 UNL     1       3.573  -0.929   0.439  1.00  0.00     0.039 A 
HETATM   16  C15 UNL     1       1.808   0.723   0.144  1.00  0.00    -0.006 A 
HETATM   17  C12 UNL     1       4.143  -0.550  -0.776  1.00  0.00     0.022 A 
HETATM   18  C13 UNL     1       3.566   0.471  -1.528  1.00  0.00     0.011 A 
HETATM   19 BR1  UNL     1       4.352   0.996  -3.189  1.00  0.00    -0.051 Br
HETATM   20  C14 UNL     1       2.410   1.106  -1.070  1.00  0.00     0.030 A 
HETATM   21  C16 UNL     1       0.534   1.419   0.558  1.00  0.00     0.166 C 
ENDBRANCH   9  10
TORSDOF 1
