REMARK  5 active torsions:
REMARK  status: ('A' for Active; 'I' for Inactive)
REMARK       I    between atoms: N1_4  and  C3_5 
REMARK    1  A    between atoms: C3_5  and  C4_7 
REMARK    2  A    between atoms: C8_11  and  C9_12 
REMARK    3  A    between atoms: C9_12  and  C10_13 
REMARK    4  A    between atoms: C10_13  and  C11_14 
REMARK    5  A    between atoms: C16_19  and  O3_20 
ROOT
HETATM    1  C4  UNL     1      -0.661  -2.020  -1.728  1.00  0.00     0.033 A 
HETATM    2  C5  UNL     1      -0.055  -3.190  -2.215  1.00  0.00     0.017 A 
HETATM    3  C6  UNL     1       1.235  -3.540  -1.808  1.00  0.00     0.002 A 
HETATM    4  C7  UNL     1       1.934  -2.726  -0.914  1.00  0.00     0.007 A 
HETATM    5  C8  UNL     1       1.346  -1.553  -0.421  1.00  0.00    -0.057 A 
HETATM    6  C17 UNL     1       0.059  -1.193  -0.849  1.00  0.00     0.024 A 
ENDROOT
BRANCH   1   7
HETATM    7  C3  UNL     1      -2.027  -1.652  -2.176  1.00  0.00     0.272 C 
HETATM    8  N1  UNL     1      -2.978  -1.018  -1.290  1.00  0.00    -0.136 N 
HETATM    9  C2  UNL     1      -4.208  -0.423  -1.822  1.00  0.00     0.254 C 
HETATM   10  C18 UNL     1      -2.863  -1.174   0.132  1.00  0.00     0.711 A 
HETATM   11  C1  UNL     1      -3.972   1.005  -2.210  1.00  0.00     0.236 C 
HETATM   12  O1  UNL     1      -3.728   1.279  -3.415  1.00  0.00    -0.272 OA
HETATM   13  N4  UNL     1      -4.005   2.065  -1.244  1.00  0.00    -0.358 N 
HETATM   14  C22 UNL     1      -4.062   1.854   0.203  1.00  0.00     0.143 C 
HETATM   15  H22 UNL     1      -3.964   3.050  -1.594  1.00  0.00     0.162 HD
HETATM   16  C21 UNL     1      -2.733   1.291   0.726  1.00  0.00     0.166 C 
HETATM   17  N3  UNL     1      -2.823  -0.144   1.007  1.00  0.00    -0.188 N 
HETATM   18  C20 UNL     1      -2.704  -0.721   2.215  1.00  0.00     0.129 A 
HETATM   19  C19 UNL     1      -2.679  -2.087   2.041  1.00  0.00     0.154 A 
HETATM   20  N2  UNL     1      -2.774  -2.381   0.729  1.00  0.00    -0.075 NA
HETATM   21  O2  UNL     1      -2.359  -1.911  -3.365  1.00  0.00    -0.267 OA
ENDBRANCH   1   7
BRANCH   5  22
HETATM   22  C9  UNL     1       2.110  -0.651   0.511  1.00  0.00     0.043 C 
BRANCH  22  23
HETATM   23  C10 UNL     1       2.855   0.430  -0.278  1.00  0.00     0.046 C 
BRANCH  23  24
HETATM   24  C11 UNL     1       3.627   1.335   0.653  1.00  0.00    -0.025 A 
HETATM   25  C12 UNL     1       3.039   2.547   1.060  1.00  0.00     0.010 A 
HETATM   26  C13 UNL     1       3.712   3.406   1.931  1.00  0.00     0.001 A 
HETATM   27  C14 UNL     1       4.975   3.063   2.414  1.00  0.00     0.003 A 
HETATM   28  C15 UNL     1       5.565   1.857   2.034  1.00  0.00     0.037 A 
HETATM   29  C16 UNL     1       4.901   0.982   1.164  1.00  0.00     0.071 A 
BRANCH  29  30
HETATM   30  O3  UNL     1       5.532  -0.221   0.839  1.00  0.00    -0.360 OA
HETATM   31  H14 UNL     1       5.116  -0.929   0.248  1.00  0.00     0.217 HD
ENDBRANCH  29  30
ENDBRANCH  23  24
ENDBRANCH  22  23
ENDBRANCH   5  22
TORSDOF 5
