REMARK  6 active torsions:
REMARK  status: ('A' for Active; 'I' for Inactive)
REMARK       I    between atoms: C1_2  and  N1_3 
REMARK    1  A    between atoms: C1_2  and  C23_28 
REMARK       I    between atoms: N1_3  and  C2_4 
REMARK    2  A    between atoms: C2_4  and  C3_6 
REMARK    3  A    between atoms: C25_30  and  C46_51 
REMARK    4  A    between atoms: C26_31  and  C29_34 
REMARK    5  A    between atoms: C34_39  and  C35_40 
REMARK    6  A    between atoms: C40_45  and  C41_46 
ROOT
HETATM    1  O1  UNL     1      -0.549   3.148   1.064  1.00  0.00    -0.267 OA
HETATM    2  C1  UNL     1      -0.394   2.014   0.535  1.00  0.00     0.258 C 
HETATM    3  N1  UNL     1       0.922   1.592   0.150  1.00  0.00    -0.289 N 
HETATM    4  C2  UNL     1       1.877   2.505  -0.428  1.00  0.00     0.258 C 
HETATM    5  O2  UNL     1       1.524   3.693  -0.684  1.00  0.00    -0.267 OA
HETATM    6  H1  UNL     1       1.179   0.597   0.324  1.00  0.00     0.172 HD
ENDROOT
BRANCH   2   7
HETATM    7  C23 UNL     1      -1.569   1.133   0.322  1.00  0.00     0.033 C 
HETATM    8  C24 UNL     1      -2.836   1.511   0.802  1.00  0.00     0.030 C 
HETATM    9  C25 UNL     1      -3.990   0.817   0.382  1.00  0.00    -0.013 C 
HETATM   10  C26 UNL     1      -3.815  -0.510  -0.055  1.00  0.00    -0.014 C 
HETATM   11  C27 UNL     1      -2.591  -0.832  -0.671  1.00  0.00     0.014 C 
HETATM   12  C28 UNL     1      -1.477  -0.009  -0.491  1.00  0.00     0.018 C 
BRANCH   9  13
HETATM   13  C46 UNL     1      -5.009   1.653  -0.317  1.00  0.00    -0.014 A 
HETATM   14  C41 UNL     1      -6.411   1.447  -0.224  1.00  0.00    -0.014 A 
HETATM   15  C42 UNL     1      -7.269   2.292  -0.974  1.00  0.00     0.013 A 
HETATM   16  C43 UNL     1      -6.770   3.311  -1.780  1.00  0.00     0.001 A 
HETATM   17  C44 UNL     1      -5.403   3.508  -1.876  1.00  0.00     0.001 A 
HETATM   18  C45 UNL     1      -4.534   2.688  -1.165  1.00  0.00     0.013 A 
BRANCH  14  19
HETATM   19  C40 UNL     1      -7.043   0.337   0.545  1.00  0.00    -0.014 C 
HETATM   20  C35 UNL     1      -6.853  -0.981   0.078  1.00  0.00    -0.014 C 
HETATM   21  C36 UNL     1      -7.987  -1.664  -0.411  1.00  0.00     0.013 C 
HETATM   22  C37 UNL     1      -9.266  -1.247  -0.031  1.00  0.00     0.001 C 
HETATM   23  C38 UNL     1      -9.410  -0.144   0.813  1.00  0.00     0.001 C 
HETATM   24  C39 UNL     1      -8.295   0.639   1.123  1.00  0.00     0.013 C 
BRANCH  20  25
HETATM   25  C34 UNL     1      -5.851  -1.827   0.782  1.00  0.00    -0.014 A 
HETATM   26  C29 UNL     1      -4.452  -1.603   0.726  1.00  0.00    -0.014 A 
HETATM   27  C30 UNL     1      -3.602  -2.432   1.499  1.00  0.00     0.013 A 
HETATM   28  C31 UNL     1      -4.107  -3.467   2.279  1.00  0.00     0.001 A 
HETATM   29  C32 UNL     1      -5.474  -3.689   2.333  1.00  0.00     0.001 A 
HETATM   30  C33 UNL     1      -6.336  -2.875   1.604  1.00  0.00     0.013 A 
ENDBRANCH  20  25
ENDBRANCH  14  19
ENDBRANCH   9  13
ENDBRANCH   2   7
BRANCH   4  31
HETATM   31  C3  UNL     1       3.260   2.081  -0.764  1.00  0.00     0.036 A 
HETATM   32  C4  UNL     1       3.578   0.732  -1.009  1.00  0.00     0.030 A 
HETATM   33  C5  UNL     1       4.890   0.352  -1.327  1.00  0.00    -0.012 A 
HETATM   34  C6  UNL     1       5.898   1.333  -1.446  1.00  0.00    -0.008 A 
HETATM   35  C22 UNL     1       5.219  -1.085  -1.478  1.00  0.00     0.025 A 
HETATM   36  C7  UNL     1       5.583   2.679  -1.201  1.00  0.00     0.124 A 
HETATM   37  C9  UNL     1       7.311   0.934  -1.815  1.00  0.00     0.047 C 
HETATM   38  F1  UNL     1       6.537   3.639  -1.291  1.00  0.00    -0.205 F 
HETATM   39  C8  UNL     1       4.277   3.047  -0.869  1.00  0.00     0.060 A 
HETATM   40  C10 UNL     1       8.181   0.530  -0.608  1.00  0.00     0.044 C 
HETATM   41  C11 UNL     1       7.441   0.080   0.642  1.00  0.00    -0.047 A 
HETATM   42  C12 UNL     1       7.708   0.748   1.851  1.00  0.00     0.008 A 
HETATM   43  C16 UNL     1       6.551  -1.028   0.657  1.00  0.00    -0.019 A 
HETATM   44  C13 UNL     1       7.120   0.329   3.048  1.00  0.00     0.001 A 
HETATM   45  C14 UNL     1       6.260  -0.765   3.058  1.00  0.00     0.001 A 
HETATM   46  C15 UNL     1       5.977  -1.440   1.872  1.00  0.00     0.013 A 
HETATM   47  C17 UNL     1       6.106  -1.717  -0.575  1.00  0.00    -0.011 A 
HETATM   48  C18 UNL     1       6.429  -3.070  -0.759  1.00  0.00     0.013 A 
HETATM   49  C19 UNL     1       5.892  -3.785  -1.831  1.00  0.00     0.004 A 
HETATM   50  C20 UNL     1       5.018  -3.162  -2.722  1.00  0.00     0.043 A 
HETATM   51  C21 UNL     1       4.682  -1.818  -2.550  1.00  0.00     0.128 A 
HETATM   52  F2  UNL     1       3.848  -1.221  -3.441  1.00  0.00    -0.205 F 
ENDBRANCH   4  31
TORSDOF 6
