REMARK  2 active torsions:
REMARK  status: ('A' for Active; 'I' for Inactive)
REMARK    1  A    between atoms: C4_4  and  N1_5 
REMARK    2  A    between atoms: C6_7  and  C7_8 
ROOT
HETATM    1  C7  UNL     1       1.658  -0.254   0.076  1.00  0.00    -0.025 A 
HETATM    2  C8  UNL     1       1.271  -1.508  -0.416  1.00  0.00     0.013 A 
HETATM    3  C9  UNL     1      -0.003  -2.009  -0.153  1.00  0.00     0.014 A 
HETATM    4  C10 UNL     1      -0.928  -1.267   0.599  1.00  0.00    -0.011 A 
HETATM    5  C11 UNL     1      -0.553   0.007   1.099  1.00  0.00     0.022 A 
HETATM    6  C12 UNL     1       0.742   0.490   0.838  1.00  0.00     0.028 A 
HETATM    7  C13 UNL     1      -1.450   0.856   1.924  1.00  0.00     0.164 C 
HETATM    8  O1  UNL     1      -0.985   1.385   2.970  1.00  0.00    -0.292 OA
HETATM    9  C14 UNL     1      -2.886   1.134   1.570  1.00  0.00     0.123 C 
HETATM   10  C15 UNL     1      -3.136   1.066   0.080  1.00  0.00    -0.040 A 
HETATM   11  C16 UNL     1      -3.069   2.237  -0.694  1.00  0.00     0.008 A 
HETATM   12  C17 UNL     1      -3.315   2.189  -2.068  1.00  0.00     0.001 A 
HETATM   13  C18 UNL     1      -3.623   0.975  -2.684  1.00  0.00     0.001 A 
HETATM   14  C19 UNL     1      -3.675  -0.200  -1.930  1.00  0.00     0.013 A 
HETATM   15  C20 UNL     1      -3.416  -0.165  -0.551  1.00  0.00    -0.018 A 
HETATM   16  C21 UNL     1      -3.423  -1.420   0.227  1.00  0.00    -0.014 A 
HETATM   17  C22 UNL     1      -4.627  -2.123   0.387  1.00  0.00     0.013 A 
HETATM   18  C23 UNL     1      -4.673  -3.274   1.176  1.00  0.00     0.001 A 
HETATM   19  C24 UNL     1      -3.517  -3.734   1.809  1.00  0.00     0.001 A 
HETATM   20  C25 UNL     1      -2.310  -3.051   1.647  1.00  0.00     0.013 A 
HETATM   21  C26 UNL     1      -2.250  -1.886   0.863  1.00  0.00    -0.014 A 
ENDROOT
BRANCH   1  22
HETATM   22  C6  UNL     1       3.015   0.279  -0.205  1.00  0.00    -0.023 A 
HETATM   23  C5  UNL     1       4.141  -0.560  -0.128  1.00  0.00     0.041 A 
HETATM   24  C4  UNL     1       5.424  -0.058  -0.383  1.00  0.00     0.026 A 
HETATM   25  C3  UNL     1       5.587   1.291  -0.724  1.00  0.00     0.035 A 
HETATM   26  C2  UNL     1       4.473   2.136  -0.825  1.00  0.00    -0.059 A 
HETATM   27  C1  UNL     1       4.654   3.588  -1.157  1.00  0.00     0.048 C 
HETATM   28  C27 UNL     1       3.193   1.631  -0.549  1.00  0.00     0.019 A 
BRANCH  24  29
HETATM   29  N1  UNL     1       6.564  -0.916  -0.287  1.00  0.00    -0.399 N 
HETATM   30  H5  UNL     1       7.525  -0.552  -0.473  1.00  0.00     0.156 HD
HETATM   31  H6  UNL     1       6.455  -1.923  -0.032  1.00  0.00     0.156 HD
ENDBRANCH  24  29
ENDBRANCH   1  22
TORSDOF 2
