REMARK  3 active torsions:
REMARK  status: ('A' for Active; 'I' for Inactive)
REMARK    1  A    between atoms: C1_2  and  C2_3 
REMARK    2  A    between atoms: C1_2  and  C21_24 
REMARK    3  A    between atoms: C7_8  and  C8_9 
ROOT
HETATM    1  O1  UNL     1       1.925  -0.282   3.244  1.00  0.00    -0.287 OA
HETATM    2  C1  UNL     1       1.637  -0.176   2.021  1.00  0.00     0.193 C 
ENDROOT
BRANCH   2   3
HETATM    3  C2  UNL     1       2.700  -0.422   1.010  1.00  0.00     0.027 A 
HETATM    4  C3  UNL     1       3.539  -1.535   1.183  1.00  0.00     0.031 A 
HETATM    5  C4  UNL     1       4.546  -1.858   0.243  1.00  0.00     0.003 A 
HETATM    6  C5  UNL     1       4.694  -1.022  -0.892  1.00  0.00     0.047 A 
HETATM    7  C20 UNL     1       5.413  -2.983   0.378  1.00  0.00    -0.008 A 
HETATM    8  C6  UNL     1       3.866   0.097  -1.057  1.00  0.00     0.043 A 
HETATM    9  N1  UNL     1       5.646  -1.289  -1.828  1.00  0.00    -0.322 N 
HETATM   10  C7  UNL     1       2.883   0.419  -0.115  1.00  0.00    -0.009 A 
HETATM   11  C14 UNL     1       6.485  -2.351  -1.725  1.00  0.00     0.257 A 
HETATM   12  H8  UNL     1       5.745  -0.661  -2.660  1.00  0.00     0.169 HD
HETATM   13  O2  UNL     1       7.346  -2.544  -2.627  1.00  0.00    -0.267 OA
HETATM   14  C15 UNL     1       6.392  -3.223  -0.626  1.00  0.00     0.043 A 
HETATM   15  C16 UNL     1       7.260  -4.327  -0.514  1.00  0.00     0.018 A 
HETATM   16  C17 UNL     1       7.170  -5.191   0.574  1.00  0.00     0.001 A 
HETATM   17  C18 UNL     1       6.219  -4.969   1.563  1.00  0.00     0.001 A 
HETATM   18  C19 UNL     1       5.349  -3.881   1.474  1.00  0.00     0.013 A 
BRANCH  10  19
HETATM   19  C8  UNL     1       2.090   1.654  -0.320  1.00  0.00    -0.025 A 
HETATM   20  C9  UNL     1       1.324   1.814  -1.488  1.00  0.00     0.012 A 
HETATM   21  C10 UNL     1       0.524   2.948  -1.655  1.00  0.00     0.001 A 
HETATM   22  C11 UNL     1       0.497   3.938  -0.669  1.00  0.00     0.000 A 
HETATM   23  C12 UNL     1       1.276   3.798   0.484  1.00  0.00     0.001 A 
HETATM   24  C13 UNL     1       2.073   2.663   0.657  1.00  0.00     0.012 A 
ENDBRANCH  10  19
ENDBRANCH   2   3
BRANCH   2  25
HETATM   25  C21 UNL     1       0.252   0.187   1.637  1.00  0.00     0.016 A 
HETATM   26  C22 UNL     1      -0.475   1.074   2.424  1.00  0.00     0.016 A 
HETATM   27  C23 UNL     1      -1.745   1.474   2.034  1.00  0.00     0.014 A 
HETATM   28  C24 UNL     1      -2.342   0.997   0.842  1.00  0.00    -0.011 A 
HETATM   29  C25 UNL     1      -1.606   0.102   0.009  1.00  0.00     0.027 A 
HETATM   30  C41 UNL     1      -3.669   1.370   0.578  1.00  0.00    -0.014 C 
HETATM   31  C26 UNL     1      -0.323  -0.310   0.462  1.00  0.00     0.031 A 
HETATM   32  C27 UNL     1      -1.981  -0.266  -1.320  1.00  0.00     0.194 C 
HETATM   33  O3  UNL     1      -1.061  -0.748  -2.046  1.00  0.00    -0.287 OA
HETATM   34  C28 UNL     1      -3.270  -0.156  -1.929  1.00  0.00     0.026 A 
HETATM   35  C29 UNL     1      -3.347  -0.380  -3.332  1.00  0.00     0.016 A 
HETATM   36  C33 UNL     1      -4.500  -0.011  -1.216  1.00  0.00    -0.011 A 
HETATM   37  C30 UNL     1      -4.565  -0.510  -3.992  1.00  0.00     0.001 A 
HETATM   38  C31 UNL     1      -5.749  -0.433  -3.282  1.00  0.00     0.001 A 
HETATM   39  C32 UNL     1      -5.722  -0.183  -1.915  1.00  0.00     0.013 A 
HETATM   40  C34 UNL     1      -4.563   0.393   0.129  1.00  0.00    -0.014 C 
HETATM   41  C35 UNL     1      -5.531  -0.088   0.948  1.00  0.00     0.013 C 
HETATM   42  C36 UNL     1      -5.774   0.381   2.324  1.00  0.00     0.001 C 
HETATM   43  C37 UNL     1      -6.231   1.608   2.600  1.00  0.00     0.000 C 
HETATM   44  C38 UNL     1      -6.450   2.646   1.573  1.00  0.00     0.000 C 
HETATM   45  C39 UNL     1      -5.491   3.082   0.749  1.00  0.00     0.001 C 
HETATM   46  C40 UNL     1      -4.091   2.629   0.848  1.00  0.00     0.013 C 
ENDBRANCH   2  25
TORSDOF 3
