REMARK  3 active torsions:
REMARK  status: ('A' for Active; 'I' for Inactive)
REMARK    1  A    between atoms: C2_2  and  C3_3 
REMARK    2  A    between atoms: C2_2  and  N3_23 
REMARK       I    between atoms: C3_3  and  N1_5 
REMARK    3  A    between atoms: N2_8  and  C6_9 
ROOT
HETATM    1  C3  UNL     1      -0.493  -0.595  -0.880  1.00  0.00     0.246 C 
HETATM    2  O1  UNL     1      -0.583  -1.525  -1.730  1.00  0.00    -0.271 OA
HETATM    3  N1  UNL     1       0.359  -0.782   0.274  1.00  0.00    -0.314 N 
HETATM    4  C4  UNL     1       0.792   0.358   1.103  1.00  0.00     0.152 C 
HETATM    5  C5  UNL     1       2.190   0.153   1.690  1.00  0.00     0.153 C 
HETATM    6  N2  UNL     1       3.103  -0.347   0.656  1.00  0.00    -0.312 N 
HETATM    7  C12 UNL     1       3.115  -1.753   0.341  1.00  0.00     0.260 C 
HETATM    8  O2  UNL     1       4.124  -2.255  -0.228  1.00  0.00    -0.267 OA
HETATM    9  C13 UNL     1       1.971  -2.627   0.696  1.00  0.00     0.059 A 
HETATM   10  C14 UNL     1       2.201  -3.974   1.025  1.00  0.00     0.019 A 
HETATM   11  C15 UNL     1       1.137  -4.810   1.374  1.00  0.00     0.001 A 
HETATM   12  C16 UNL     1      -0.166  -4.314   1.391  1.00  0.00     0.002 A 
HETATM   13  C17 UNL     1      -0.412  -2.982   1.051  1.00  0.00     0.031 A 
HETATM   14  C18 UNL     1       0.647  -2.130   0.699  1.00  0.00     0.053 A 
ENDROOT
BRANCH   1  15
HETATM   15  C2  UNL     1      -1.279   0.688  -1.092  1.00  0.00     0.168 C 
HETATM   16  C1  UNL     1      -2.177   0.624  -2.342  1.00  0.00     0.042 C 
BRANCH  15  17
HETATM   17  N3  UNL     1      -2.031   1.025   0.143  1.00  0.00    -0.396 N 
HETATM   18  C19 UNL     1      -2.281   2.460   0.389  1.00  0.00     0.144 C 
HETATM   19  C20 UNL     1      -3.715   2.874   0.035  1.00  0.00     0.187 C 
HETATM   20  O3  UNL     1      -4.653   2.022   0.656  1.00  0.00    -0.383 OA
HETATM   21  C21 UNL     1      -4.517   0.714   0.138  1.00  0.00     0.135 C 
HETATM   22  C22 UNL     1      -5.639  -0.156   0.700  1.00  0.00     0.041 C 
HETATM   23  C23 UNL     1      -3.143   0.128   0.524  1.00  0.00     0.149 C 
ENDBRANCH  15  17
ENDBRANCH   1  15
BRANCH   6  24
HETATM   24  C6  UNL     1       3.844   0.580  -0.157  1.00  0.00     0.037 A 
HETATM   25  C7  UNL     1       3.711   0.557  -1.556  1.00  0.00     0.029 A 
HETATM   26  C8  UNL     1       4.421   1.465  -2.347  1.00  0.00     0.002 A 
HETATM   27  C9  UNL     1       5.269   2.402  -1.748  1.00  0.00     0.000 A 
HETATM   28  C10 UNL     1       5.407   2.431  -0.358  1.00  0.00     0.002 A 
HETATM   29  C11 UNL     1       4.698   1.525   0.437  1.00  0.00     0.029 A 
ENDBRANCH   6  24
TORSDOF 3
