REMARK  2 active torsions:
REMARK  status: ('A' for Active; 'I' for Inactive)
REMARK    1  A    between atoms: C1_2  and  C2_3 
REMARK    2  A    between atoms: C1_2  and  C20_23 
ROOT
HETATM    1  O1  UNL     1      -0.403   0.053   3.636  1.00  0.00    -0.287 OA
HETATM    2  C1  UNL     1       0.025  -0.050   2.454  1.00  0.00     0.192 C 
ENDROOT
BRANCH   2   3
HETATM    3  C2  UNL     1      -0.933   0.104   1.333  1.00  0.00     0.015 A 
HETATM    4  C3  UNL     1      -0.794  -0.649   0.160  1.00  0.00     0.016 A 
HETATM    5  C4  UNL     1      -1.704  -0.503  -0.887  1.00  0.00     0.014 A 
HETATM    6  C5  UNL     1      -2.790   0.384  -0.785  1.00  0.00    -0.017 A 
HETATM    7  C6  UNL     1      -2.952   1.135   0.413  1.00  0.00    -0.046 A 
HETATM    8  C19 UNL     1      -3.667   0.539  -1.984  1.00  0.00     0.001 A 
HETATM    9  C7  UNL     1      -2.021   0.980   1.455  1.00  0.00     0.023 A 
HETATM   10  C8  UNL     1      -4.137   2.044   0.655  1.00  0.00     0.040 C 
HETATM   11  C9  UNL     1      -5.107   1.485   1.721  1.00  0.00     0.024 C 
HETATM   12  C10 UNL     1      -5.367  -0.044   1.639  1.00  0.00     0.042 A 
HETATM   13  C11 UNL     1      -5.086  -0.873   2.892  1.00  0.00     0.020 A 
HETATM   14  C12 UNL     1      -6.518  -0.537   2.508  1.00  0.00     0.020 A 
HETATM   15  C13 UNL     1      -5.267  -0.742   0.310  1.00  0.00     0.231 C 
HETATM   16  O2  UNL     1      -4.636  -1.827   0.191  1.00  0.00    -0.272 OA
HETATM   17  N1  UNL     1      -5.827  -0.117  -0.841  1.00  0.00    -0.326 N 
HETATM   18  C14 UNL     1      -5.072   0.269  -2.004  1.00  0.00     0.045 A 
HETATM   19  H12 UNL     1      -6.829   0.176  -0.780  1.00  0.00     0.169 HD
HETATM   20  C15 UNL     1      -5.786   0.464  -3.199  1.00  0.00     0.030 A 
HETATM   21  C16 UNL     1      -5.143   0.887  -4.361  1.00  0.00     0.002 A 
HETATM   22  C17 UNL     1      -3.774   1.134  -4.349  1.00  0.00     0.001 A 
HETATM   23  C18 UNL     1      -3.043   0.964  -3.174  1.00  0.00     0.014 A 
ENDBRANCH   2   3
BRANCH   2  24
HETATM   24  C20 UNL     1       1.469  -0.317   2.233  1.00  0.00     0.016 C 
HETATM   25  C21 UNL     1       2.138   0.202   1.117  1.00  0.00     0.028 C 
HETATM   26  C22 UNL     1       3.523  -0.016   0.901  1.00  0.00    -0.010 C 
HETATM   27  C23 UNL     1       4.220  -0.862   1.805  1.00  0.00     0.026 C 
HETATM   28  C38 UNL     1       4.190   0.780  -0.063  1.00  0.00    -0.014 A 
HETATM   29  C24 UNL     1       3.548  -1.300   2.972  1.00  0.00     0.017 C 
HETATM   30  C26 UNL     1       5.533  -1.330   1.609  1.00  0.00     0.194 C 
HETATM   31  C25 UNL     1       2.200  -1.031   3.181  1.00  0.00     0.016 C 
HETATM   32  O3  UNL     1       6.219  -1.628   2.630  1.00  0.00    -0.287 OA
HETATM   33  C27 UNL     1       6.029  -1.704   0.345  1.00  0.00     0.026 A 
HETATM   34  C28 UNL     1       6.864  -2.849   0.295  1.00  0.00     0.016 A 
HETATM   35  C32 UNL     1       5.719  -1.036  -0.872  1.00  0.00    -0.011 A 
HETATM   36  C29 UNL     1       7.279  -3.392  -0.917  1.00  0.00     0.001 A 
HETATM   37  C30 UNL     1       6.880  -2.809  -2.109  1.00  0.00     0.001 A 
HETATM   38  C31 UNL     1       6.119  -1.644  -2.090  1.00  0.00     0.013 A 
HETATM   39  C33 UNL     1       5.230   0.294  -0.908  1.00  0.00    -0.014 A 
HETATM   40  C34 UNL     1       5.788   1.183  -1.867  1.00  0.00     0.013 A 
HETATM   41  C35 UNL     1       5.342   2.494  -1.999  1.00  0.00     0.001 A 
HETATM   42  C36 UNL     1       4.334   2.966  -1.177  1.00  0.00     0.001 A 
HETATM   43  C37 UNL     1       3.769   2.128  -0.222  1.00  0.00     0.013 A 
ENDBRANCH   2  24
TORSDOF 2
