REMARK  3 active torsions:
REMARK  status: ('A' for Active; 'I' for Inactive)
REMARK    1  A    between atoms: C5_5  and  C6_6 
REMARK    2  A    between atoms: C9_9  and  C10_10 
REMARK       I    between atoms: C10_10  and  N1_12 
REMARK       I    between atoms: N1_12  and  C11_13 
REMARK    3  A    between atoms: C11_13  and  C12_15 
ROOT
HETATM    1  C10 UNL     1      -0.308   0.806  -1.972  1.00  0.00     0.258 C 
HETATM    2  O1  UNL     1      -0.186   1.051  -3.203  1.00  0.00    -0.267 OA
HETATM    3  N1  UNL     1       0.854   0.784  -1.122  1.00  0.00    -0.289 N 
HETATM    4  C11 UNL     1       2.206   0.821  -1.615  1.00  0.00     0.258 C 
HETATM    5  O2  UNL     1       2.429   1.069  -2.831  1.00  0.00    -0.267 OA
HETATM    6  H8  UNL     1       0.708   0.814  -0.089  1.00  0.00     0.172 HD
ENDROOT
BRANCH   1   7
HETATM    7  C9  UNL     1      -1.662   0.564  -1.416  1.00  0.00     0.032 A 
HETATM    8  C8  UNL     1      -1.842  -0.196  -0.247  1.00  0.00     0.018 A 
HETATM    9  C7  UNL     1      -3.123  -0.421   0.263  1.00  0.00     0.013 A 
HETATM   10  C6  UNL     1      -4.254   0.101  -0.386  1.00  0.00    -0.026 A 
HETATM   11  C27 UNL     1      -4.075   0.851  -1.562  1.00  0.00     0.013 A 
HETATM   12  C26 UNL     1      -2.794   1.076  -2.073  1.00  0.00     0.018 A 
BRANCH  10  13
HETATM   13  C5  UNL     1      -5.616  -0.138   0.158  1.00  0.00    -0.025 A 
HETATM   14  C4  UNL     1      -5.852  -0.065   1.539  1.00  0.00     0.013 A 
HETATM   15  C3  UNL     1      -7.131  -0.286   2.052  1.00  0.00     0.008 A 
HETATM   16  C2  UNL     1      -8.204  -0.585   1.198  1.00  0.00    -0.056 A 
HETATM   17  C1  UNL     1      -9.572  -0.820   1.784  1.00  0.00     0.049 C 
HETATM   18  C29 UNL     1      -7.978  -0.666  -0.196  1.00  0.00    -0.055 A 
HETATM   19  C28 UNL     1      -6.686  -0.439  -0.702  1.00  0.00     0.019 A 
HETATM   20  C30 UNL     1      -9.099  -0.990  -1.150  1.00  0.00     0.049 C 
ENDBRANCH  10  13
ENDBRANCH   1   7
BRANCH   4  21
HETATM   21  C12 UNL     1       3.353   0.588  -0.704  1.00  0.00     0.033 A 
HETATM   22  C13 UNL     1       3.205  -0.192   0.460  1.00  0.00     0.018 A 
HETATM   23  C14 UNL     1       4.289  -0.416   1.313  1.00  0.00     0.014 A 
HETATM   24  C15 UNL     1       5.535   0.140   1.018  1.00  0.00    -0.015 A 
HETATM   25  C16 UNL     1       5.712   0.909  -0.167  1.00  0.00     0.026 A 
HETATM   26  C24 UNL     1       6.726  -0.074   1.881  1.00  0.00    -0.043 C 
HETATM   27  C17 UNL     1       4.618   1.124  -1.017  1.00  0.00     0.033 A 
HETATM   28  C18 UNL     1       7.082   1.424  -0.493  1.00  0.00     0.189 C 
HETATM   29  O3  UNL     1       7.334   2.010  -1.580  1.00  0.00    -0.287 OA
HETATM   30  C19 UNL     1       8.154   1.136   0.490  1.00  0.00    -0.003 C 
HETATM   31  C20 UNL     1       9.121   0.272   0.132  1.00  0.00     0.011 C 
HETATM   32  C25 UNL     1       7.653   1.100   1.898  1.00  0.00     0.082 C 
HETATM   33  C21 UNL     1       9.560  -0.846   1.020  1.00  0.00     0.001 C 
HETATM   34  C22 UNL     1       8.728  -1.552   1.826  1.00  0.00     0.001 C 
HETATM   35  C23 UNL     1       7.259  -1.310   1.938  1.00  0.00     0.008 C 
ENDBRANCH   4  21
TORSDOF 3
