REMARK  3 active torsions:
REMARK  status: ('A' for Active; 'I' for Inactive)
REMARK       I    between atoms: C1_2  and  N1_3 
REMARK    1  A    between atoms: C1_2  and  C15_18 
REMARK    2  A    between atoms: N1_3  and  C2_4 
REMARK    3  A    between atoms: C34_38  and  O4_39 
ROOT
HETATM    1  C15 UNL     1       0.638  -0.565  -0.596  1.00  0.00     0.033 A 
HETATM    2  C16 UNL     1       1.585  -0.527   0.440  1.00  0.00     0.028 A 
HETATM    3  C17 UNL     1       2.978  -0.613   0.187  1.00  0.00    -0.000 A 
HETATM    4  C18 UNL     1       3.390  -0.771  -1.164  1.00  0.00     0.025 A 
HETATM    5  C19 UNL     1       2.437  -0.844  -2.191  1.00  0.00     0.017 A 
HETATM    6  C20 UNL     1       1.078  -0.743  -1.912  1.00  0.00     0.018 A 
HETATM    7  C21 UNL     1       4.800  -0.699  -1.559  1.00  0.00     0.193 C 
HETATM    8  O3  UNL     1       5.281  -1.510  -2.396  1.00  0.00    -0.287 OA
HETATM    9  C22 UNL     1       5.563   0.470  -1.129  1.00  0.00     0.026 A 
HETATM   10  C23 UNL     1       6.077   1.350  -2.094  1.00  0.00     0.016 A 
HETATM   11  C24 UNL     1       6.628   2.573  -1.709  1.00  0.00     0.001 A 
HETATM   12  C25 UNL     1       6.660   2.929  -0.360  1.00  0.00     0.001 A 
HETATM   13  C26 UNL     1       6.168   2.050   0.607  1.00  0.00     0.013 A 
HETATM   14  C27 UNL     1       5.630   0.801   0.234  1.00  0.00    -0.012 A 
HETATM   15  C28 UNL     1       5.317  -0.221   1.273  1.00  0.00    -0.004 C 
HETATM   16  C29 UNL     1       6.291  -0.454   2.183  1.00  0.00     0.012 C 
HETATM   17  C30 UNL     1       6.226  -1.345   3.355  1.00  0.00     0.001 C 
HETATM   18  C31 UNL     1       5.578  -2.510   3.421  1.00  0.00    -0.000 C 
HETATM   19  C32 UNL     1       4.763  -3.091   2.347  1.00  0.00    -0.000 C 
HETATM   20  C33 UNL     1       4.058  -2.400   1.446  1.00  0.00     0.021 C 
HETATM   21  C34 UNL     1       3.930  -0.879   1.379  1.00  0.00     0.132 C 
ENDROOT
BRANCH   1  22
HETATM   22  C1  UNL     1      -0.810  -0.486  -0.281  1.00  0.00     0.256 C 
HETATM   23  O1  UNL     1      -1.219  -0.946   0.821  1.00  0.00    -0.267 OA
HETATM   24  N1  UNL     1      -1.744   0.088  -1.215  1.00  0.00    -0.323 N 
HETATM   25  H1  UNL     1      -1.396   0.400  -2.149  1.00  0.00     0.169 HD
BRANCH  24  26
HETATM   26  C2  UNL     1      -3.162   0.173  -0.990  1.00  0.00     0.035 A 
HETATM   27  C3  UNL     1      -4.037  -0.021  -2.064  1.00  0.00     0.030 A 
HETATM   28  C4  UNL     1      -5.418   0.089  -1.889  1.00  0.00     0.015 A 
HETATM   29  C5  UNL     1      -5.959   0.414  -0.629  1.00  0.00    -0.015 A 
HETATM   30  C6  UNL     1      -5.078   0.591   0.461  1.00  0.00    -0.021 A 
HETATM   31  C14 UNL     1      -7.429   0.524  -0.394  1.00  0.00     0.008 A 
HETATM   32  C7  UNL     1      -3.690   0.503   0.269  1.00  0.00     0.039 A 
HETATM   33  C8  UNL     1      -5.614   0.979   1.817  1.00  0.00     0.215 C 
HETATM   34  O2  UNL     1      -6.967   0.554   1.991  1.00  0.00    -0.346 OA
HETATM   35  C9  UNL     1      -7.885   0.549   0.938  1.00  0.00     0.080 A 
HETATM   36  C10 UNL     1      -9.255   0.559   1.219  1.00  0.00     0.037 A 
HETATM   37  C11 UNL     1     -10.184   0.592   0.177  1.00  0.00     0.003 A 
HETATM   38  C12 UNL     1      -9.745   0.615  -1.149  1.00  0.00     0.001 A 
HETATM   39  C13 UNL     1      -8.377   0.580  -1.439  1.00  0.00     0.015 A 
ENDBRANCH  24  26
ENDBRANCH   1  22
BRANCH  21  40
HETATM   40  O4  UNL     1       3.310  -0.358   2.539  1.00  0.00    -0.376 OA
HETATM   41  H23 UNL     1       3.590  -0.862   3.344  1.00  0.00     0.211 HD
ENDBRANCH  21  40
TORSDOF 3
