REMARK  7 active torsions:
REMARK  status: ('A' for Active; 'I' for Inactive)
REMARK       I    between atoms: C1_2  and  N1_3 
REMARK    1  A    between atoms: C1_2  and  C32_37 
REMARK       I    between atoms: N1_3  and  C2_4 
REMARK    2  A    between atoms: C2_4  and  C3_6 
REMARK    3  A    between atoms: C5_8  and  C31_36 
REMARK    4  A    between atoms: C6_9  and  C8_13 
REMARK    5  A    between atoms: C13_18  and  C14_19 
REMARK    6  A    between atoms: C19_24  and  C20_25 
REMARK    7  A    between atoms: C25_30  and  C26_31 
ROOT
HETATM    1  C3  UNL     1      -0.699  -2.361  -0.646  1.00  0.00     0.104 C 
HETATM    2  C4  UNL     1      -1.128  -1.145  -0.105  1.00  0.00     0.048 C 
HETATM    3  C5  UNL     1      -2.318  -1.060   0.653  1.00  0.00    -0.006 C 
HETATM    4  C6  UNL     1      -3.175  -2.203   0.649  1.00  0.00     0.054 C 
HETATM    5  C7  UNL     1      -2.677  -3.423   0.130  1.00  0.00     0.258 C 
HETATM    6  O3  UNL     1      -3.381  -4.471   0.168  1.00  0.00    -0.267 OA
HETATM    7  N2  UNL     1      -1.459  -3.474  -0.471  1.00  0.00    -0.318 N 
HETATM    8  H3  UNL     1      -1.125  -4.391  -0.846  1.00  0.00     0.169 HD
ENDROOT
BRANCH   1   9
HETATM    9  C2  UNL     1       0.589  -2.453  -1.368  1.00  0.00     0.275 C 
HETATM   10  N1  UNL     1       1.699  -1.615  -0.999  1.00  0.00    -0.288 N 
HETATM   11  C1  UNL     1       2.960  -1.602  -1.691  1.00  0.00     0.263 C 
HETATM   12  H1  UNL     1       1.620  -1.074  -0.111  1.00  0.00     0.172 HD
HETATM   13  O1  UNL     1       3.151  -2.358  -2.682  1.00  0.00    -0.267 OA
HETATM   14  O2  UNL     1       0.716  -3.310  -2.284  1.00  0.00    -0.266 OA
BRANCH  11  15
HETATM   15  C32 UNL     1       4.067  -0.740  -1.233  1.00  0.00     0.090 A 
HETATM   16  C33 UNL     1       5.407  -0.933  -1.522  1.00  0.00     0.052 A 
HETATM   17  C34 UNL     1       6.095   0.084  -0.883  1.00  0.00     0.048 A 
HETATM   18  N3  UNL     1       5.233   0.881  -0.212  1.00  0.00    -0.320 N 
HETATM   19  C44 UNL     1       7.562   0.250  -0.906  1.00  0.00    -0.001 A 
HETATM   20  C35 UNL     1       3.998   0.389  -0.433  1.00  0.00     0.207 A 
HETATM   21  C36 UNL     1       5.556   2.024   0.647  1.00  0.00     0.158 C 
HETATM   22  F1  UNL     1       2.865   0.959   0.049  1.00  0.00    -0.185 F 
HETATM   23  C37 UNL     1       5.714   3.307  -0.178  1.00  0.00     0.188 C 
HETATM   24  O4  UNL     1       7.047   3.484  -0.619  1.00  0.00    -0.385 OA
HETATM   25  C38 UNL     1       7.344   2.659  -1.729  1.00  0.00     0.207 C 
HETATM   26  C39 UNL     1       8.165   1.475  -1.280  1.00  0.00    -0.022 A 
HETATM   27  C40 UNL     1       9.565   1.596  -1.226  1.00  0.00     0.010 A 
HETATM   28  C41 UNL     1      10.357   0.508  -0.852  1.00  0.00     0.001 A 
HETATM   29  C42 UNL     1       9.763  -0.711  -0.526  1.00  0.00     0.001 A 
HETATM   30  C43 UNL     1       8.373  -0.842  -0.556  1.00  0.00     0.014 A 
ENDBRANCH  11  15
ENDBRANCH   1   9
BRANCH   3  31
HETATM   31  C31 UNL     1      -2.440   0.003   1.613  1.00  0.00    -0.014 C 
HETATM   32  C26 UNL     1      -3.675   0.543   2.140  1.00  0.00    -0.014 C 
HETATM   33  C27 UNL     1      -3.631   1.093   3.457  1.00  0.00     0.013 C 
HETATM   34  C28 UNL     1      -2.440   1.283   4.143  1.00  0.00     0.001 C 
HETATM   35  C29 UNL     1      -1.243   0.951   3.546  1.00  0.00     0.001 C 
HETATM   36  C30 UNL     1      -1.236   0.319   2.311  1.00  0.00     0.013 C 
BRANCH  32  37
HETATM   37  C25 UNL     1      -4.852   0.870   1.376  1.00  0.00    -0.014 C 
HETATM   38  C20 UNL     1      -4.794   1.374   0.035  1.00  0.00    -0.014 C 
HETATM   39  C21 UNL     1      -5.776   2.293  -0.393  1.00  0.00     0.013 C 
HETATM   40  C22 UNL     1      -6.910   2.538   0.377  1.00  0.00     0.001 C 
HETATM   41  C23 UNL     1      -7.095   1.850   1.569  1.00  0.00     0.001 C 
HETATM   42  C24 UNL     1      -6.087   1.023   2.060  1.00  0.00     0.013 C 
BRANCH  38  43
HETATM   43  C19 UNL     1      -4.136   0.695  -1.002  1.00  0.00    -0.014 A 
HETATM   44  C14 UNL     1      -4.486  -0.648  -1.301  1.00  0.00    -0.014 A 
HETATM   45  C15 UNL     1      -3.958  -1.268  -2.444  1.00  0.00     0.013 A 
HETATM   46  C16 UNL     1      -3.123  -0.557  -3.308  1.00  0.00     0.001 A 
HETATM   47  C17 UNL     1      -2.814   0.778  -3.045  1.00  0.00     0.001 A 
HETATM   48  C18 UNL     1      -3.334   1.409  -1.913  1.00  0.00     0.013 A 
BRANCH  44  49
HETATM   49  C13 UNL     1      -5.227  -1.412  -0.385  1.00  0.00    -0.014 A 
HETATM   50  C8  UNL     1      -4.571  -2.071   0.684  1.00  0.00    -0.009 A 
HETATM   51  C9  UNL     1      -5.333  -2.782   1.626  1.00  0.00     0.013 A 
HETATM   52  C10 UNL     1      -6.729  -2.774   1.553  1.00  0.00     0.001 A 
HETATM   53  C11 UNL     1      -7.375  -2.089   0.521  1.00  0.00     0.001 A 
HETATM   54  C12 UNL     1      -6.630  -1.410  -0.447  1.00  0.00     0.013 A 
ENDBRANCH  44  49
ENDBRANCH  38  43
ENDBRANCH  32  37
ENDBRANCH   3  31
TORSDOF 7
