REMARK  5 active torsions:
REMARK  status: ('A' for Active; 'I' for Inactive)
REMARK    1  A    between atoms: C2_2  and  O1_3 
REMARK    2  A    between atoms: O1_3  and  C3_4 
REMARK    3  A    between atoms: C3_4  and  C4_6 
REMARK    4  A    between atoms: C6_9  and  C7_10 
REMARK       I    between atoms: C7_10  and  N1_12 
REMARK    5  A    between atoms: N1_12  and  C8_13 
ROOT
HETATM    1  C8  UNL     1      -1.013   1.374   0.523  1.00  0.00     0.044 A 
HETATM    2  C9  UNL     1      -0.797   2.687   0.968  1.00  0.00     0.030 A 
HETATM    3  C10 UNL     1      -1.849   3.442   1.477  1.00  0.00     0.005 A 
HETATM    4  C11 UNL     1      -3.133   2.905   1.524  1.00  0.00     0.038 A 
HETATM    5  C12 UNL     1      -3.388   1.607   1.068  1.00  0.00     0.084 A 
HETATM    6  C13 UNL     1      -2.316   0.815   0.596  1.00  0.00     0.003 A 
HETATM    7  C14 UNL     1      -2.576  -0.606   0.193  1.00  0.00     0.048 C 
HETATM    8  C15 UNL     1      -3.478  -0.618  -1.034  1.00  0.00     0.046 C 
HETATM    9  C16 UNL     1      -4.931  -0.589  -0.645  1.00  0.00    -0.024 A 
HETATM   10  C17 UNL     1      -5.813  -1.422  -1.363  1.00  0.00     0.010 A 
HETATM   11  C18 UNL     1      -7.167  -1.481  -1.038  1.00  0.00     0.001 A 
HETATM   12  C19 UNL     1      -7.666  -0.708   0.005  1.00  0.00     0.003 A 
HETATM   13  C20 UNL     1      -6.814   0.138   0.713  1.00  0.00     0.038 A 
HETATM   14  C21 UNL     1      -5.450   0.229   0.399  1.00  0.00     0.082 A 
HETATM   15  O5  UNL     1      -4.718   1.164   1.160  1.00  0.00    -0.310 OA
ENDROOT
BRANCH   1  16
HETATM   16  N1  UNL     1       0.078   0.645  -0.064  1.00  0.00    -0.321 N 
HETATM   17  C7  UNL     1       1.369   0.541   0.555  1.00  0.00     0.280 C 
HETATM   18  O4  UNL     1       1.551   0.975   1.725  1.00  0.00    -0.265 OA
HETATM   19  H7  UNL     1      -0.080   0.165  -0.978  1.00  0.00     0.169 HD
BRANCH  17  20
HETATM   20  C6  UNL     1       2.483  -0.095  -0.164  1.00  0.00     0.143 A 
HETATM   21  O3  UNL     1       2.391  -0.583  -1.381  1.00  0.00    -0.316 OA
HETATM   22  C5  UNL     1       3.557  -1.077  -1.729  1.00  0.00     0.160 A 
HETATM   23  C4  UNL     1       4.452  -0.904  -0.692  1.00  0.00     0.064 A 
HETATM   24  C22 UNL     1       3.766  -0.271   0.323  1.00  0.00     0.062 A 
BRANCH  23  25
HETATM   25  C3  UNL     1       5.862  -1.312  -0.668  1.00  0.00     0.295 C 
HETATM   26  O2  UNL     1       6.366  -1.888  -1.671  1.00  0.00    -0.259 OA
BRANCH  25  27
HETATM   27  O1  UNL     1       6.633  -1.064   0.474  1.00  0.00    -0.318 OA
BRANCH  27  28
HETATM   28  C2  UNL     1       8.021  -1.379   0.568  1.00  0.00     0.174 C 
HETATM   29  C1  UNL     1       8.856  -0.368  -0.209  1.00  0.00     0.034 C 
ENDBRANCH  27  28
ENDBRANCH  25  27
ENDBRANCH  23  25
ENDBRANCH  17  20
ENDBRANCH   1  16
TORSDOF 5
