REMARK  2 active torsions:
REMARK  status: ('A' for Active; 'I' for Inactive)
REMARK    1  A    between atoms: C4_6  and  N3_7 
REMARK    2  A    between atoms: N4_11  and  C8_12 
ROOT
HETATM    1  N3  UNL     1      -1.207  -0.001   1.240  1.00  0.00    -0.363 N 
HETATM    2  C5  UNL     1      -0.979  -1.349   1.770  1.00  0.00     0.126 C 
HETATM    3  C6  UNL     1       0.345  -1.934   1.267  1.00  0.00     0.040 C 
HETATM    4  C7  UNL     1       1.559  -1.040   1.565  1.00  0.00     0.124 C 
HETATM    5  N4  UNL     1       1.623   0.101   0.633  1.00  0.00    -0.379 N 
HETATM    6  C14 UNL     1       0.838   1.329   0.875  1.00  0.00     0.143 C 
HETATM    7  C15 UNL     1      -0.403   1.114   1.747  1.00  0.00     0.144 C 
ENDROOT
BRANCH   1   8
HETATM    8  C4  UNL     1      -2.423   0.281   0.533  1.00  0.00     0.146 A 
HETATM    9  N2  UNL     1      -3.514   0.689   1.232  1.00  0.00    -0.223 NA
HETATM   10  C3  UNL     1      -4.686   0.965   0.609  1.00  0.00     0.235 A 
HETATM   11  N1  UNL     1      -4.786   0.838  -0.738  1.00  0.00    -0.245 NA
HETATM   12  C2  UNL     1      -3.726   0.436  -1.490  1.00  0.00     0.053 A 
HETATM   13  C1  UNL     1      -3.894   0.318  -2.974  1.00  0.00     0.072 C 
HETATM   14  C16 UNL     1      -2.501   0.145  -0.863  1.00  0.00     0.081 A 
HETATM   15 BR1  UNL     1      -0.970  -0.404  -1.888  1.00  0.00    -0.045 Br
ENDBRANCH   1   8
BRANCH   5  16
HETATM   16  C8  UNL     1       2.535   0.063  -0.496  1.00  0.00     0.030 A 
HETATM   17  C9  UNL     1       3.173   1.238  -0.946  1.00  0.00     0.029 A 
HETATM   18  C10 UNL     1       4.042   1.203  -2.040  1.00  0.00     0.002 A 
HETATM   19  C11 UNL     1       4.289  -0.001  -2.702  1.00  0.00     0.000 A 
HETATM   20  C12 UNL     1       3.668  -1.173  -2.270  1.00  0.00     0.002 A 
HETATM   21  C13 UNL     1       2.799  -1.145  -1.175  1.00  0.00     0.029 A 
ENDBRANCH   5  16
TORSDOF 2
