REMARK  4 active torsions:
REMARK  status: ('A' for Active; 'I' for Inactive)
REMARK    1  A    between atoms: C2_2  and  N1_3 
REMARK    2  A    between atoms: C2_2  and  C15_20 
REMARK       I    between atoms: N1_3  and  C3_4 
REMARK       I    between atoms: C3_4  and  N2_6 
REMARK    3  A    between atoms: N2_6  and  C4_7 
REMARK    4  A    between atoms: C4_7  and  C5_8 
ROOT
HETATM    1  N1  UNL     1       1.187  -3.055   1.117  1.00  0.00    -0.335 N 
HETATM    2  C3  UNL     1      -0.247  -3.099   1.104  1.00  0.00     0.316 C 
HETATM    3  O1  UNL     1      -0.905  -2.666   2.091  1.00  0.00    -0.247 OA
HETATM    4  N2  UNL     1      -0.930  -3.643  -0.035  1.00  0.00    -0.339 N 
HETATM    5  H5  UNL     1       1.703  -3.566   0.367  1.00  0.00     0.165 HD
HETATM    6  H6  UNL     1      -0.367  -4.022  -0.828  1.00  0.00     0.164 HD
ENDROOT
BRANCH   4   7
HETATM    7  C4  UNL     1      -2.388  -3.662  -0.143  1.00  0.00     0.162 C 
BRANCH   7   8
HETATM    8  C5  UNL     1      -2.928  -2.258  -0.230  1.00  0.00    -0.040 A 
HETATM    9  C6  UNL     1      -3.663  -1.715   0.828  1.00  0.00     0.011 A 
HETATM   10  C7  UNL     1      -4.129  -0.404   0.759  1.00  0.00     0.031 A 
HETATM   11  C8  UNL     1      -3.873   0.405  -0.362  1.00  0.00     0.041 A 
HETATM   12  C9  UNL     1      -3.115  -0.139  -1.437  1.00  0.00    -0.031 A 
HETATM   13  N3  UNL     1      -4.423   1.742  -0.358  1.00  0.00    -0.327 N 
HETATM   14  C10 UNL     1      -2.663  -1.471  -1.356  1.00  0.00     0.018 A 
HETATM   15  C11 UNL     1      -2.750   0.660  -2.667  1.00  0.00     0.041 C 
HETATM   16  C12 UNL     1      -2.119   2.001  -2.282  1.00  0.00     0.014 C 
HETATM   17  C13 UNL     1      -3.163   3.107  -2.145  1.00  0.00     0.103 C 
HETATM   18  C14 UNL     1      -4.421   2.684  -1.440  1.00  0.00     0.222 C 
HETATM   19  O2  UNL     1      -5.491   3.293  -1.710  1.00  0.00    -0.273 OA
HETATM   20  H18 UNL     1      -5.055   1.989   0.437  1.00  0.00     0.169 HD
ENDBRANCH   7   8
ENDBRANCH   4   7
BRANCH   1  21
HETATM   21  C2  UNL     1       1.951  -2.246   2.069  1.00  0.00     0.115 C 
HETATM   22  C1  UNL     1       2.916  -3.133   2.858  1.00  0.00     0.037 C 
BRANCH  21  23
HETATM   23  C15 UNL     1       2.684  -1.143   1.335  1.00  0.00    -0.035 A 
HETATM   24  C16 UNL     1       3.683  -1.446   0.377  1.00  0.00     0.010 A 
HETATM   25  C17 UNL     1       4.356  -0.418  -0.300  1.00  0.00     0.008 A 
HETATM   26  C18 UNL     1       4.013   0.905  -0.027  1.00  0.00    -0.052 A 
HETATM   27  C19 UNL     1       3.036   1.210   0.884  1.00  0.00    -0.051 A 
HETATM   28  C23 UNL     1       4.615   2.117  -0.626  1.00  0.00     0.039 A 
HETATM   29  C20 UNL     1       2.356   0.208   1.580  1.00  0.00     0.017 A 
HETATM   30  C21 UNL     1       2.834   2.671   1.017  1.00  0.00     0.039 A 
HETATM   31  C22 UNL     1       3.871   3.282   0.055  1.00  0.00     0.009 A 
ENDBRANCH  21  23
ENDBRANCH   1  21
TORSDOF 4
