REMARK  4 active torsions:
REMARK  status: ('A' for Active; 'I' for Inactive)
REMARK    1  A    between atoms: C6_6  and  C7_7 
REMARK       I    between atoms: C7_7  and  N1_9 
REMARK    2  A    between atoms: C9_11  and  C10_12 
REMARK       I    between atoms: C10_12  and  N2_14 
REMARK    3  A    between atoms: C13_17  and  C14_18 
REMARK    4  A    between atoms: C22_27  and  C23_28 
ROOT
HETATM    1  C7  UNL     1       3.136   1.167  -1.510  1.00  0.00     0.254 C 
HETATM    2  O1  UNL     1       3.882   0.680  -2.402  1.00  0.00    -0.267 OA
HETATM    3  N1  UNL     1       1.736   1.295  -1.760  1.00  0.00    -0.346 N 
HETATM    4  C8  UNL     1       0.811   1.031  -2.875  1.00  0.00     0.141 A 
HETATM    5  C9  UNL     1      -0.447   1.368  -2.122  1.00  0.00     0.114 A 
HETATM    6  C21 UNL     1       0.515   1.613  -0.998  1.00  0.00     0.141 A 
ENDROOT
BRANCH   1   7
HETATM    7  C6  UNL     1       3.708   1.584  -0.213  1.00  0.00     0.043 A 
HETATM    8  C5  UNL     1       3.410   2.866   0.271  1.00  0.00     0.018 A 
HETATM    9  C4  UNL     1       3.959   3.317   1.469  1.00  0.00     0.002 A 
HETATM   10  C3  UNL     1       4.806   2.493   2.206  1.00  0.00     0.007 A 
HETATM   11  C2  UNL     1       5.108   1.196   1.761  1.00  0.00    -0.050 A 
HETATM   12  C1  UNL     1       6.013   0.331   2.600  1.00  0.00     0.049 C 
HETATM   13  C22 UNL     1       4.569   0.737   0.531  1.00  0.00    -0.004 A 
BRANCH  13  14
HETATM   14  C23 UNL     1       4.850  -0.641   0.059  1.00  0.00    -0.024 A 
HETATM   15  C24 UNL     1       3.822  -1.596   0.024  1.00  0.00     0.012 A 
HETATM   16  C25 UNL     1       4.084  -2.895  -0.422  1.00  0.00     0.001 A 
HETATM   17  C26 UNL     1       5.371  -3.246  -0.836  1.00  0.00     0.000 A 
HETATM   18  C27 UNL     1       6.399  -2.299  -0.807  1.00  0.00     0.001 A 
HETATM   19  C28 UNL     1       6.141  -0.998  -0.363  1.00  0.00     0.012 A 
ENDBRANCH  13  14
ENDBRANCH   1   7
BRANCH   5  20
HETATM   20  C10 UNL     1      -1.399   0.221  -1.866  1.00  0.00     0.227 C 
HETATM   21  O2  UNL     1      -1.343  -0.816  -2.584  1.00  0.00    -0.273 OA
HETATM   22  N2  UNL     1      -2.407   0.316  -0.845  1.00  0.00    -0.351 N 
HETATM   23  C11 UNL     1      -2.660   1.506  -0.046  1.00  0.00     0.126 C 
HETATM   24  C20 UNL     1      -3.329  -0.766  -0.542  1.00  0.00     0.137 C 
HETATM   25  C12 UNL     1      -3.952   1.219   0.709  1.00  0.00     0.033 C 
HETATM   26  C13 UNL     1      -4.080  -0.312   0.709  1.00  0.00     0.062 C 
BRANCH  26  27
HETATM   27  C14 UNL     1      -5.505  -0.833   0.744  1.00  0.00     0.058 C 
HETATM   28  C15 UNL     1      -5.697  -2.118   1.080  1.00  0.00     0.033 C 
HETATM   29  C16 UNL     1      -6.981  -2.793   1.306  1.00  0.00     0.002 C 
HETATM   30  C17 UNL     1      -8.166  -2.460   0.796  1.00  0.00     0.002 C 
HETATM   31  C18 UNL     1      -8.455  -1.332  -0.094  1.00  0.00     0.025 C 
HETATM   32  C19 UNL     1      -7.751  -0.208  -0.199  1.00  0.00     0.142 C 
HETATM   33  O3  UNL     1      -6.540   0.062   0.442  1.00  0.00    -0.327 OA
ENDBRANCH  26  27
ENDBRANCH   5  20
TORSDOF 4
