REMARK  2 active torsions:
REMARK  status: ('A' for Active; 'I' for Inactive)
REMARK    1  A    between atoms: C5_5  and  C6_6 
REMARK    2  A    between atoms: C9_10  and  C10_11 
REMARK       I    between atoms: C10_11  and  N2_13 
ROOT
HETATM    1  C6  UNL     1       1.747  -0.190   0.850  1.00  0.00     0.023 C 
HETATM    2  C7  UNL     1       1.400  -1.539   1.507  1.00  0.00     0.039 C 
HETATM    3  C8  UNL     1      -0.120  -1.764   1.504  1.00  0.00     0.271 C 
HETATM    4  N1  UNL     1      -0.668  -1.684   0.142  1.00  0.00     0.097 N 
HETATM    5  C9  UNL     1      -0.407  -0.363  -0.456  1.00  0.00     0.312 C 
HETATM    6  C21 UNL     1       1.107  -0.087  -0.547  1.00  0.00     0.055 C 
HETATM    7  H11 UNL     1      -0.219  -2.430  -0.442  1.00  0.00     0.317 HD
ENDROOT
BRANCH   5   8
HETATM    8  C10 UNL     1      -1.049  -0.291  -1.823  1.00  0.00     0.253 C 
HETATM    9  O1  UNL     1      -0.640  -1.068  -2.730  1.00  0.00    -0.271 OA
HETATM   10  N2  UNL     1      -2.156   0.593  -2.095  1.00  0.00    -0.350 N 
HETATM   11  C11 UNL     1      -2.229   1.929  -1.481  1.00  0.00     0.130 C 
HETATM   12  C20 UNL     1      -3.280   0.114  -2.917  1.00  0.00     0.130 C 
HETATM   13  C12 UNL     1      -3.215   1.994  -0.288  1.00  0.00     0.059 C 
HETATM   14  C13 UNL     1      -3.717   0.642   0.186  1.00  0.00    -0.050 A 
HETATM   15  C14 UNL     1      -3.481   0.235   1.511  1.00  0.00     0.007 A 
HETATM   16  C18 UNL     1      -4.411  -0.227  -0.693  1.00  0.00    -0.050 A 
HETATM   17  C15 UNL     1      -3.911  -1.018   1.953  1.00  0.00     0.001 A 
HETATM   18  C16 UNL     1      -4.583  -1.877   1.083  1.00  0.00     0.001 A 
HETATM   19  C17 UNL     1      -4.829  -1.487  -0.235  1.00  0.00     0.007 A 
HETATM   20  C19 UNL     1      -4.608   0.151  -2.143  1.00  0.00     0.059 C 
ENDBRANCH   5   8
BRANCH   1  21
HETATM   21  C5  UNL     1       3.248   0.028   0.788  1.00  0.00    -0.054 A 
HETATM   22  C4  UNL     1       4.082  -0.842   0.060  1.00  0.00     0.008 A 
HETATM   23  C3  UNL     1       5.462  -0.626   0.009  1.00  0.00     0.007 A 
HETATM   24  C2  UNL     1       6.035   0.455   0.694  1.00  0.00    -0.062 A 
HETATM   25  C1  UNL     1       7.511   0.711   0.607  1.00  0.00     0.048 C 
HETATM   26  C23 UNL     1       5.207   1.334   1.405  1.00  0.00     0.007 A 
HETATM   27  C22 UNL     1       3.827   1.120   1.457  1.00  0.00     0.008 A 
ENDBRANCH   1  21
TORSDOF 2
