REMARK  8 active torsions:
REMARK  status: ('A' for Active; 'I' for Inactive)
REMARK       I    between atoms: C1_2  and  N1_3 
REMARK    1  A    between atoms: C1_2  and  C21_25 
REMARK       I    between atoms: N1_3  and  C2_4 
REMARK       I    between atoms: C2_4  and  N2_6 
REMARK    2  A    between atoms: C3_7  and  C20_24 
REMARK    3  A    between atoms: C8_12  and  C9_13 
REMARK    4  A    between atoms: C14_18  and  C15_19 
REMARK    5  A    between atoms: C23_27  and  C43_49 
REMARK    6  A    between atoms: C24_28  and  C26_32 
REMARK    7  A    between atoms: C31_37  and  C32_38 
REMARK    8  A    between atoms: C37_43  and  C38_44 
ROOT
HETATM    1  C21 UNL     1       0.840  -0.682  -0.095  1.00  0.00     0.104 A 
HETATM    2  C22 UNL     1       1.964  -1.124  -0.808  1.00  0.00     0.048 A 
HETATM    3  C23 UNL     1       3.072  -0.283  -0.966  1.00  0.00    -0.006 A 
HETATM    4  C24 UNL     1       3.040   1.013  -0.416  1.00  0.00     0.054 A 
HETATM    5  C25 UNL     1       1.904   1.414   0.310  1.00  0.00     0.258 A 
HETATM    6  O3  UNL     1       1.858   2.560   0.835  1.00  0.00    -0.267 OA
HETATM    7  N3  UNL     1       0.849   0.566   0.461  1.00  0.00    -0.318 N 
HETATM    8  H15 UNL     1       0.043   0.888   1.041  1.00  0.00     0.169 HD
ENDROOT
BRANCH   1   9
HETATM    9  C1  UNL     1      -0.334  -1.577   0.054  1.00  0.00     0.276 C 
HETATM   10  O1  UNL     1      -0.170  -2.824  -0.029  1.00  0.00    -0.266 OA
HETATM   11  N1  UNL     1      -1.652  -1.036   0.265  1.00  0.00    -0.273 N 
HETATM   12  C2  UNL     1      -2.828  -1.840   0.456  1.00  0.00     0.334 C 
HETATM   13  H1  UNL     1      -1.783  -0.003   0.213  1.00  0.00     0.173 HD
HETATM   14  O2  UNL     1      -2.781  -3.089   0.289  1.00  0.00    -0.246 OA
HETATM   15  N2  UNL     1      -4.073  -1.222   0.818  1.00  0.00    -0.263 N 
HETATM   16  C3  UNL     1      -4.170   0.056   1.398  1.00  0.00     0.055 C 
HETATM   17  C8  UNL     1      -5.296  -1.909   0.861  1.00  0.00     0.055 C 
HETATM   18  C4  UNL     1      -4.248   0.163   2.733  1.00  0.00     0.031 C 
HETATM   19  C5  UNL     1      -4.292  -1.038   3.612  1.00  0.00     0.002 C 
HETATM   20  C6  UNL     1      -4.914  -2.197   3.298  1.00  0.00     0.002 C 
HETATM   21  C7  UNL     1      -5.681  -2.427   2.043  1.00  0.00     0.031 C 
BRANCH  16  22
HETATM   22  C20 UNL     1      -4.523   1.139   0.490  1.00  0.00     0.002 A 
HETATM   23  C15 UNL     1      -5.393   0.910  -0.628  1.00  0.00    -0.013 A 
HETATM   24  C16 UNL     1      -5.348   1.878  -1.665  1.00  0.00     0.013 A 
HETATM   25  C17 UNL     1      -4.620   3.061  -1.538  1.00  0.00     0.001 A 
HETATM   26  C18 UNL     1      -3.880   3.310  -0.390  1.00  0.00     0.001 A 
HETATM   27  C19 UNL     1      -3.813   2.346   0.610  1.00  0.00     0.014 A 
BRANCH  23  28
HETATM   28  C14 UNL     1      -6.395  -0.255  -0.767  1.00  0.00    -0.013 C 
HETATM   29  C9  UNL     1      -6.294  -1.569  -0.173  1.00  0.00     0.002 C 
HETATM   30  C10 UNL     1      -7.226  -2.568  -0.516  1.00  0.00     0.014 C 
HETATM   31  C11 UNL     1      -8.302  -2.291  -1.349  1.00  0.00     0.001 C 
HETATM   32  C12 UNL     1      -8.485  -1.006  -1.835  1.00  0.00     0.001 C 
HETATM   33  C13 UNL     1      -7.562  -0.005  -1.539  1.00  0.00     0.013 C 
ENDBRANCH  23  28
ENDBRANCH  16  22
ENDBRANCH   1   9
BRANCH   3  34
HETATM   34  C43 UNL     1       4.237  -0.769  -1.741  1.00  0.00    -0.014 A 
HETATM   35  C38 UNL     1       5.492  -0.989  -1.126  1.00  0.00    -0.014 A 
HETATM   36  C39 UNL     1       6.557  -1.493  -1.891  1.00  0.00     0.013 A 
HETATM   37  C40 UNL     1       6.384  -1.766  -3.250  1.00  0.00     0.001 A 
HETATM   38  C41 UNL     1       5.146  -1.550  -3.856  1.00  0.00     0.001 A 
HETATM   39  C42 UNL     1       4.075  -1.059  -3.106  1.00  0.00     0.013 A 
BRANCH  35  40
HETATM   40  C37 UNL     1       5.703  -0.737   0.318  1.00  0.00    -0.014 A 
HETATM   41  C32 UNL     1       5.673   0.573   0.850  1.00  0.00    -0.014 A 
HETATM   42  C33 UNL     1       5.918   0.769   2.219  1.00  0.00     0.013 A 
HETATM   43  C34 UNL     1       6.178  -0.320   3.053  1.00  0.00     0.001 A 
HETATM   44  C35 UNL     1       6.207  -1.613   2.528  1.00  0.00     0.001 A 
HETATM   45  C36 UNL     1       5.978  -1.821   1.167  1.00  0.00     0.013 A 
BRANCH  41  46
HETATM   46  C31 UNL     1       5.422   1.749  -0.011  1.00  0.00    -0.014 A 
HETATM   47  C26 UNL     1       4.165   1.958  -0.621  1.00  0.00    -0.009 A 
HETATM   48  C27 UNL     1       3.964   3.097  -1.417  1.00  0.00     0.013 A 
HETATM   49  C28 UNL     1       4.997   4.016  -1.612  1.00  0.00     0.001 A 
HETATM   50  C29 UNL     1       6.238   3.812  -1.006  1.00  0.00     0.001 A 
HETATM   51  C30 UNL     1       6.449   2.688  -0.205  1.00  0.00     0.013 A 
ENDBRANCH  41  46
ENDBRANCH  35  40
ENDBRANCH   3  34
TORSDOF 8
