REMARK  6 active torsions:
REMARK  status: ('A' for Active; 'I' for Inactive)
REMARK    1  A    between atoms: C5_5  and  C6_6 
REMARK       I    between atoms: C6_6  and  N1_8 
REMARK    2  A    between atoms: C10_15  and  C11_16 
REMARK    3  A    between atoms: C11_16  and  O5_18 
REMARK    4  A    between atoms: C14_21  and  C15_22 
REMARK    5  A    between atoms: C15_22  and  O7_24 
REMARK    6  A    between atoms: O7_24  and  C16_25 
ROOT
HETATM    1  C6  UNL     1       1.610  -0.537  -2.217  1.00  0.00     0.253 C 
HETATM    2  O1  UNL     1       1.318  -0.117  -3.368  1.00  0.00    -0.267 OA
HETATM    3  N1  UNL     1       2.985  -0.546  -1.799  1.00  0.00    -0.346 N 
HETATM    4  C7  UNL     1       3.734  -1.803  -1.724  1.00  0.00     0.141 C 
HETATM    5  C8  UNL     1       4.050  -2.170  -0.273  1.00  0.00     0.160 C 
HETATM    6  S1  UNL     1       5.481  -1.296   0.343  1.00  0.00     0.146 S 
HETATM    7  O2  UNL     1       6.671  -1.665  -0.498  1.00  0.00    -0.228 OA
HETATM    8  O3  UNL     1       5.732  -1.754   1.752  1.00  0.00    -0.228 OA
HETATM    9  C9  UNL     1       5.315   0.490   0.351  1.00  0.00     0.157 C 
HETATM   10  C10 UNL     1       3.929   0.994  -0.095  1.00  0.00     0.115 C 
HETATM   11  C12 UNL     1       3.669   0.734  -1.598  1.00  0.00     0.142 C 
ENDROOT
BRANCH   1  12
HETATM   12  C5  UNL     1       0.524  -0.884  -1.280  1.00  0.00     0.033 A 
HETATM   13  C4  UNL     1       0.519  -2.103  -0.594  1.00  0.00     0.017 A 
HETATM   14  C3  UNL     1      -0.510  -2.407   0.295  1.00  0.00     0.009 A 
HETATM   15  C2  UNL     1      -1.563  -1.505   0.513  1.00  0.00    -0.046 A 
HETATM   16  C1  UNL     1      -2.627  -1.877   1.515  1.00  0.00     0.049 C 
HETATM   17  C14 UNL     1      -1.597  -0.287  -0.216  1.00  0.00     0.046 A 
HETATM   18  C13 UNL     1      -0.540   0.010  -1.097  1.00  0.00     0.035 A 
BRANCH  17  19
HETATM   19  C15 UNL     1      -2.712   0.687  -0.093  1.00  0.00     0.294 C 
HETATM   20  O6  UNL     1      -2.501   1.907  -0.331  1.00  0.00    -0.259 OA
BRANCH  19  21
HETATM   21  O7  UNL     1      -3.996   0.242   0.254  1.00  0.00    -0.307 OA
BRANCH  21  22
HETATM   22  C16 UNL     1      -5.154   1.059   0.480  1.00  0.00     0.060 C 
HETATM   23  C17 UNL     1      -6.300   0.116   0.875  1.00  0.00     0.046 C 
HETATM   24  C18 UNL     1      -5.547   1.813  -0.804  1.00  0.00     0.046 C 
HETATM   25  C19 UNL     1      -4.901   2.046   1.635  1.00  0.00     0.046 C 
ENDBRANCH  21  22
ENDBRANCH  19  21
ENDBRANCH  17  19
ENDBRANCH   1  12
BRANCH  10  26
HETATM   26  C11 UNL     1       3.828   2.465   0.210  1.00  0.00     0.146 C 
HETATM   27  O4  UNL     1       4.465   3.306  -0.480  1.00  0.00    -0.650 OA
BRANCH  26  28
HETATM   28  O5  UNL     1       3.068   2.894   1.292  1.00  0.00    -0.776 OA
HETATM   29  H13 UNL     1       3.009   3.877   1.525  1.00  0.00     0.167 HD
ENDBRANCH  26  28
ENDBRANCH  10  26
TORSDOF 6
