REMARK  2 active torsions:
REMARK  status: ('A' for Active; 'I' for Inactive)
REMARK    1  A    between atoms: C5_5  and  C6_6 
REMARK    2  A    between atoms: C14_16  and  C15_17 
ROOT
HETATM    1  C6  UNL     1       3.215  -0.522   0.930  1.00  0.00    -0.025 A 
HETATM    2  C7  UNL     1       2.909  -1.297   2.057  1.00  0.00     0.013 A 
HETATM    3  C8  UNL     1       1.586  -1.478   2.457  1.00  0.00     0.011 A 
HETATM    4  C9  UNL     1       0.528  -0.886   1.745  1.00  0.00    -0.019 A 
HETATM    5  C10 UNL     1       0.824  -0.112   0.589  1.00  0.00    -0.011 A 
HETATM    6  C11 UNL     1       2.166   0.064   0.203  1.00  0.00     0.025 A 
HETATM    7  C12 UNL     1      -0.246   0.505  -0.238  1.00  0.00     0.048 C 
HETATM    8  C13 UNL     1      -1.210   1.396   0.421  1.00  0.00     0.254 C 
HETATM    9  O1  UNL     1      -0.782   2.265   1.227  1.00  0.00    -0.268 OA
HETATM   10  N1  UNL     1      -2.622   1.229   0.264  1.00  0.00    -0.326 N 
HETATM   11  C14 UNL     1      -3.267   0.403  -0.769  1.00  0.00     0.139 C 
HETATM   12  C21 UNL     1      -2.988  -1.127  -0.552  1.00  0.00     0.089 C 
HETATM   13  C22 UNL     1      -2.959  -1.612   0.923  1.00  0.00     0.274 C 
HETATM   14  N2  UNL     1      -1.623  -2.076   1.355  1.00  0.00     0.087 N 
HETATM   15  C23 UNL     1      -0.895  -1.137   2.228  1.00  0.00     0.309 C 
HETATM   16  C24 UNL     1      -0.271   0.300  -1.564  1.00  0.00     0.092 C 
HETATM   17  C25 UNL     1      -1.340   0.771  -2.466  1.00  0.00     0.244 C 
HETATM   18  O2  UNL     1      -1.026   1.077  -3.647  1.00  0.00    -0.269 OA
HETATM   19  N3  UNL     1      -2.730   0.787  -2.091  1.00  0.00    -0.327 N 
HETATM   20  H9  UNL     1      -3.223   1.761   0.936  1.00  0.00     0.165 HD
HETATM   21  H18 UNL     1      -1.040  -2.439   0.566  1.00  0.00     0.316 HD
HETATM   22  H22 UNL     1      -3.403   0.972  -2.872  1.00  0.00     0.165 HD
ENDROOT
BRANCH   1  23
HETATM   23  C5  UNL     1       4.626  -0.325   0.509  1.00  0.00    -0.026 A 
HETATM   24  C4  UNL     1       5.072   0.936   0.072  1.00  0.00     0.013 A 
HETATM   25  C3  UNL     1       6.400   1.121  -0.323  1.00  0.00     0.007 A 
HETATM   26  C2  UNL     1       7.301   0.047  -0.302  1.00  0.00    -0.062 A 
HETATM   27  C1  UNL     1       8.735   0.255  -0.689  1.00  0.00     0.048 C 
HETATM   28  C27 UNL     1       6.866  -1.207   0.150  1.00  0.00     0.007 A 
HETATM   29  C26 UNL     1       5.539  -1.394   0.546  1.00  0.00     0.013 A 
ENDBRANCH   1  23
BRANCH  11  30
HETATM   30  C15 UNL     1      -4.775   0.739  -0.741  1.00  0.00    -0.007 A 
HETATM   31  C16 UNL     1      -5.189   2.023  -1.160  1.00  0.00     0.012 A 
HETATM   32  C17 UNL     1      -6.533   2.400  -1.112  1.00  0.00     0.004 A 
HETATM   33  C18 UNL     1      -7.491   1.513  -0.622  1.00  0.00     0.042 A 
HETATM   34  C19 UNL     1      -7.104   0.253  -0.167  1.00  0.00     0.117 A 
HETATM   35  F1  UNL     1      -8.034  -0.599   0.331  1.00  0.00    -0.206 F 
HETATM   36  C20 UNL     1      -5.760  -0.131  -0.212  1.00  0.00     0.053 A 
ENDBRANCH  11  30
TORSDOF 2
