REMARK  3 active torsions:
REMARK  status: ('A' for Active; 'I' for Inactive)
REMARK    1  A    between atoms: C9_10  and  N1_11 
REMARK    2  A    between atoms: N1_11  and  C10_12 
REMARK    3  A    between atoms: C10_12  and  C11_13 
ROOT
HETATM    1  O1  UNL     1      -0.831  -0.324  -2.345  1.00  0.00    -0.292 OA
HETATM    2  C1  UNL     1      -1.678  -0.152  -1.429  1.00  0.00     0.160 C 
HETATM    3  C2  UNL     1      -2.217  -1.290  -0.641  1.00  0.00     0.088 C 
HETATM    4  C3  UNL     1      -1.404  -1.515   0.621  1.00  0.00     0.049 C 
HETATM    5  C4  UNL     1      -0.983  -0.313   1.470  1.00  0.00    -0.020 A 
HETATM    6  C5  UNL     1      -1.434   1.049   1.312  1.00  0.00    -0.017 A 
HETATM    7  C6  UNL     1      -0.907   2.031   2.186  1.00  0.00     0.013 A 
HETATM    8  C7  UNL     1      -0.019   1.709   3.202  1.00  0.00     0.003 A 
HETATM    9  C8  UNL     1       0.404   0.403   3.366  1.00  0.00     0.030 A 
HETATM   10  C9  UNL     1      -0.053  -0.603   2.513  1.00  0.00     0.035 A 
HETATM   11  C21 UNL     1      -2.342   1.569   0.225  1.00  0.00    -0.011 A 
HETATM   12  C22 UNL     1      -3.218   2.642   0.507  1.00  0.00     0.013 A 
HETATM   13  C23 UNL     1      -3.861   3.339  -0.519  1.00  0.00     0.001 A 
HETATM   14  C24 UNL     1      -3.649   2.978  -1.848  1.00  0.00     0.001 A 
HETATM   15  C25 UNL     1      -2.843   1.883  -2.150  1.00  0.00     0.016 A 
HETATM   16  C26 UNL     1      -2.213   1.162  -1.122  1.00  0.00     0.021 A 
ENDROOT
BRANCH  10  17
HETATM   17  N1  UNL     1       0.508  -1.920   2.659  1.00  0.00    -0.385 N 
HETATM   18  H8  UNL     1      -0.132  -2.742   2.739  1.00  0.00     0.160 HD
BRANCH  17  19
HETATM   19  C10 UNL     1       1.928  -2.166   2.408  1.00  0.00     0.158 C 
BRANCH  19  20
HETATM   20  C11 UNL     1       2.238  -1.914   0.956  1.00  0.00    -0.040 A 
HETATM   21  C12 UNL     1       2.166  -2.962   0.025  1.00  0.00     0.010 A 
HETATM   22  C13 UNL     1       2.294  -2.710  -1.342  1.00  0.00     0.013 A 
HETATM   23  C14 UNL     1       2.478  -1.398  -1.799  1.00  0.00    -0.026 A 
HETATM   24  C15 UNL     1       2.560  -1.123  -3.173  1.00  0.00     0.012 A 
HETATM   25  C19 UNL     1       2.561  -0.335  -0.867  1.00  0.00    -0.025 A 
HETATM   26  C16 UNL     1       2.720   0.193  -3.617  1.00  0.00     0.001 A 
HETATM   27  C17 UNL     1       2.803   1.241  -2.696  1.00  0.00     0.001 A 
HETATM   28  C18 UNL     1       2.720   0.981  -1.325  1.00  0.00     0.012 A 
HETATM   29  C20 UNL     1       2.453  -0.602   0.504  1.00  0.00     0.021 A 
ENDBRANCH  19  20
ENDBRANCH  17  19
ENDBRANCH  10  17
TORSDOF 3
