REMARK  6 active torsions:
REMARK  status: ('A' for Active; 'I' for Inactive)
REMARK       I    between atoms: C1_2  and  N1_3 
REMARK    1  A    between atoms: C1_2  and  C27_30 
REMARK       I    between atoms: N1_3  and  C2_4 
REMARK    2  A    between atoms: C2_4  and  C3_6 
REMARK    3  A    between atoms: C6_9  and  C26_29 
REMARK    4  A    between atoms: C7_10  and  C9_12 
REMARK    5  A    between atoms: C14_17  and  C15_18 
REMARK    6  A    between atoms: C20_23  and  C21_24 
ROOT
HETATM    1  O1  UNL     1      -0.993  -1.907  -2.016  1.00  0.00    -0.267 OA
HETATM    2  C1  UNL     1      -0.777  -1.027  -1.138  1.00  0.00     0.258 C 
HETATM    3  N1  UNL     1       0.541  -0.457  -1.003  1.00  0.00    -0.289 N 
HETATM    4  C2  UNL     1       1.594  -0.643  -1.971  1.00  0.00     0.258 C 
HETATM    5  O2  UNL     1       1.372  -1.307  -3.021  1.00  0.00    -0.267 OA
HETATM    6  H1  UNL     1       0.736   0.140  -0.173  1.00  0.00     0.172 HD
ENDROOT
BRANCH   2   7
HETATM    7  C27 UNL     1      -1.894  -0.615  -0.246  1.00  0.00     0.033 A 
HETATM    8  C28 UNL     1      -3.013  -1.450  -0.095  1.00  0.00     0.030 A 
HETATM    9  C29 UNL     1      -4.094  -1.106   0.747  1.00  0.00    -0.018 A 
HETATM   10  C30 UNL     1      -4.069   0.160   1.390  1.00  0.00    -0.047 A 
HETATM   11  C52 UNL     1      -5.010  -2.231   1.122  1.00  0.00    -0.014 C 
HETATM   12  C31 UNL     1      -2.928   0.972   1.268  1.00  0.00     0.009 A 
HETATM   13  C33 UNL     1      -5.327   0.846   1.853  1.00  0.00     0.044 C 
HETATM   14  C32 UNL     1      -1.860   0.595   0.460  1.00  0.00     0.017 A 
HETATM   15  C34 UNL     1      -5.845   1.818   0.757  1.00  0.00     0.044 C 
HETATM   16  C35 UNL     1      -5.666   1.267  -0.657  1.00  0.00    -0.047 A 
HETATM   17  C36 UNL     1      -4.640   1.774  -1.474  1.00  0.00     0.008 A 
HETATM   18  C40 UNL     1      -6.392   0.137  -1.099  1.00  0.00    -0.019 A 
HETATM   19  C37 UNL     1      -4.338   1.166  -2.696  1.00  0.00     0.001 A 
HETATM   20  C38 UNL     1      -5.057   0.046  -3.118  1.00  0.00     0.001 A 
HETATM   21  C39 UNL     1      -6.088  -0.464  -2.327  1.00  0.00     0.013 A 
HETATM   22  C41 UNL     1      -7.526  -0.346  -0.308  1.00  0.00    -0.014 A 
HETATM   23  C42 UNL     1      -8.699   0.429  -0.326  1.00  0.00     0.013 A 
HETATM   24  C46 UNL     1      -7.413  -1.431   0.592  1.00  0.00    -0.014 A 
HETATM   25  C43 UNL     1      -9.740   0.167   0.561  1.00  0.00     0.001 A 
HETATM   26  C44 UNL     1      -9.617  -0.864   1.487  1.00  0.00     0.001 A 
HETATM   27  C45 UNL     1      -8.470  -1.657   1.501  1.00  0.00     0.013 A 
HETATM   28  C47 UNL     1      -6.314  -2.443   0.572  1.00  0.00    -0.014 C 
HETATM   29  C48 UNL     1      -6.761  -3.771   0.401  1.00  0.00     0.013 C 
HETATM   30  C49 UNL     1      -6.036  -4.850   0.897  1.00  0.00     0.001 C 
HETATM   31  C50 UNL     1      -4.854  -4.629   1.590  1.00  0.00     0.001 C 
HETATM   32  C51 UNL     1      -4.345  -3.336   1.699  1.00  0.00     0.013 C 
ENDBRANCH   2   7
BRANCH   4  33
HETATM   33  C3  UNL     1       2.933  -0.024  -1.784  1.00  0.00     0.033 A 
HETATM   34  C4  UNL     1       3.732   0.254  -2.906  1.00  0.00     0.018 A 
HETATM   35  C5  UNL     1       4.978   0.865  -2.759  1.00  0.00     0.014 A 
HETATM   36  C6  UNL     1       5.460   1.205  -1.487  1.00  0.00    -0.014 A 
HETATM   37  C7  UNL     1       4.677   0.917  -0.348  1.00  0.00    -0.013 A 
HETATM   38  C8  UNL     1       3.425   0.299  -0.505  1.00  0.00     0.030 A 
BRANCH  36  39
HETATM   39  C26 UNL     1       6.759   1.909  -1.378  1.00  0.00    -0.014 A 
HETATM   40  C21 UNL     1       7.882   1.302  -0.771  1.00  0.00    -0.014 A 
HETATM   41  C22 UNL     1       9.107   1.988  -0.741  1.00  0.00     0.013 A 
HETATM   42  C23 UNL     1       9.217   3.264  -1.297  1.00  0.00     0.001 A 
HETATM   43  C24 UNL     1       8.110   3.863  -1.897  1.00  0.00     0.001 A 
HETATM   44  C25 UNL     1       6.887   3.190  -1.942  1.00  0.00     0.013 A 
BRANCH  40  45
HETATM   45  C20 UNL     1       7.813  -0.063  -0.202  1.00  0.00    -0.014 A 
HETATM   46  C15 UNL     1       7.029  -0.349   0.939  1.00  0.00    -0.014 A 
HETATM   47  C16 UNL     1       7.036  -1.648   1.473  1.00  0.00     0.013 A 
HETATM   48  C17 UNL     1       7.805  -2.653   0.881  1.00  0.00     0.001 A 
HETATM   49  C18 UNL     1       8.580  -2.371  -0.244  1.00  0.00     0.001 A 
HETATM   50  C19 UNL     1       8.588  -1.082  -0.782  1.00  0.00     0.013 A 
BRANCH  46  51
HETATM   51  C14 UNL     1       6.243   0.702   1.624  1.00  0.00    -0.014 A 
HETATM   52  C9  UNL     1       5.119   1.304   1.012  1.00  0.00    -0.014 A 
HETATM   53  C10 UNL     1       4.376   2.262   1.720  1.00  0.00     0.013 A 
HETATM   54  C11 UNL     1       4.748   2.630   3.015  1.00  0.00     0.001 A 
HETATM   55  C12 UNL     1       5.858   2.037   3.619  1.00  0.00     0.001 A 
HETATM   56  C13 UNL     1       6.598   1.074   2.931  1.00  0.00     0.013 A 
ENDBRANCH  46  51
ENDBRANCH  40  45
ENDBRANCH  36  39
ENDBRANCH   4  33
TORSDOF 6
