REMARK  2 active torsions:
REMARK  status: ('A' for Active; 'I' for Inactive)
REMARK       I    between atoms: C1_2  and  N1_3 
REMARK    1  A    between atoms: C1_2  and  C16_22 
REMARK       I    between atoms: N1_3  and  C2_4 
REMARK    2  A    between atoms: C2_4  and  C3_6 
ROOT
HETATM    1  O1  UNL     1       0.850   1.506  -2.115  1.00  0.00    -0.267 OA
HETATM    2  C1  UNL     1       0.784   0.642  -1.196  1.00  0.00     0.258 C 
HETATM    3  N1  UNL     1      -0.468   0.386  -0.538  1.00  0.00    -0.288 N 
HETATM    4  C2  UNL     1      -1.745   0.753  -1.087  1.00  0.00     0.275 C 
HETATM    5  O2  UNL     1      -1.810   1.592  -2.026  1.00  0.00    -0.266 OA
HETATM    6  H1  UNL     1      -0.446  -0.071   0.400  1.00  0.00     0.172 HD
ENDROOT
BRANCH   2   7
HETATM    7  C16 UNL     1       2.007  -0.099  -0.803  1.00  0.00     0.033 A 
HETATM    8  C17 UNL     1       3.279   0.442  -1.060  1.00  0.00     0.032 A 
HETATM    9  C18 UNL     1       4.454  -0.262  -0.723  1.00  0.00     0.010 A 
HETATM   10  C19 UNL     1       4.333  -1.509  -0.080  1.00  0.00     0.087 A 
HETATM   11  C33 UNL     1       5.780   0.252  -1.169  1.00  0.00    -0.012 A 
HETATM   12  C20 UNL     1       3.071  -2.070   0.131  1.00  0.00     0.039 A 
HETATM   13  O4  UNL     1       5.445  -2.201   0.393  1.00  0.00    -0.309 OA
HETATM   14  C21 UNL     1       1.917  -1.373  -0.222  1.00  0.00     0.020 A 
HETATM   15  C22 UNL     1       6.318  -1.605   1.299  1.00  0.00     0.087 A 
HETATM   16  C23 UNL     1       6.518  -2.231   2.536  1.00  0.00     0.038 A 
HETATM   17  C27 UNL     1       6.963  -0.384   1.012  1.00  0.00     0.009 A 
HETATM   18  C24 UNL     1       7.300  -1.624   3.518  1.00  0.00     0.003 A 
HETATM   19  C25 UNL     1       7.894  -0.388   3.268  1.00  0.00     0.001 A 
HETATM   20  C26 UNL     1       7.734   0.226   2.024  1.00  0.00     0.015 A 
HETATM   21  C28 UNL     1       6.950   0.194  -0.360  1.00  0.00    -0.012 A 
HETATM   22  C29 UNL     1       8.165   0.686  -0.885  1.00  0.00     0.013 A 
HETATM   23  C30 UNL     1       8.230   1.228  -2.166  1.00  0.00     0.001 A 
HETATM   24  C31 UNL     1       7.087   1.286  -2.956  1.00  0.00     0.001 A 
HETATM   25  C32 UNL     1       5.877   0.801  -2.467  1.00  0.00     0.013 A 
ENDBRANCH   2   7
BRANCH   4  26
HETATM   26  C3  UNL     1      -2.998   0.154  -0.562  1.00  0.00     0.104 A 
HETATM   27  C4  UNL     1      -4.222   0.810  -0.755  1.00  0.00     0.048 A 
HETATM   28  C5  UNL     1      -5.413   0.240  -0.282  1.00  0.00    -0.010 A 
HETATM   29  C6  UNL     1      -5.363  -1.004   0.380  1.00  0.00     0.023 A 
HETATM   30  C15 UNL     1      -6.700   0.962  -0.477  1.00  0.00     0.001 A 
HETATM   31  C7  UNL     1      -4.113  -1.627   0.565  1.00  0.00     0.253 A 
HETATM   32  C8  UNL     1      -6.636  -1.647   0.881  1.00  0.00     0.065 C 
HETATM   33  O3  UNL     1      -4.032  -2.733   1.168  1.00  0.00    -0.268 OA
HETATM   34  N2  UNL     1      -2.978  -1.047   0.087  1.00  0.00    -0.319 N 
HETATM   35  H3  UNL     1      -2.078  -1.564   0.205  1.00  0.00     0.169 HD
HETATM   36  C9  UNL     1      -7.175  -0.907   2.109  1.00  0.00     0.124 C 
HETATM   37  N3  UNL     1      -7.387   0.524   1.874  1.00  0.00    -0.389 N 
HETATM   38  C10 UNL     1      -7.638   1.090   0.577  1.00  0.00     0.039 A 
HETATM   39  H8  UNL     1      -7.704   1.076   2.704  1.00  0.00     0.159 HD
HETATM   40  C11 UNL     1      -8.808   1.837   0.378  1.00  0.00     0.030 A 
HETATM   41  C12 UNL     1      -9.075   2.418  -0.863  1.00  0.00     0.002 A 
HETATM   42  C13 UNL     1      -8.167   2.273  -1.912  1.00  0.00     0.001 A 
HETATM   43  C14 UNL     1      -6.985   1.556  -1.721  1.00  0.00     0.014 A 
ENDBRANCH   4  26
TORSDOF 2
