REMARK  3 active torsions:
REMARK  status: ('A' for Active; 'I' for Inactive)
REMARK    1  A    between atoms: C1_2  and  C2_3 
REMARK    2  A    between atoms: C1_2  and  C18_23 
REMARK    3  A    between atoms: C11_12  and  C12_13 
ROOT
HETATM    1  C2  UNL     1      -1.675   2.348   0.084  1.00  0.00     0.027 A 
HETATM    2  C3  UNL     1      -2.198   3.623  -0.181  1.00  0.00     0.028 A 
HETATM    3  C4  UNL     1      -3.503   3.774  -0.669  1.00  0.00    -0.025 A 
HETATM    4  C5  UNL     1      -4.018   5.050  -0.949  1.00  0.00     0.012 A 
HETATM    5  C6  UNL     1      -5.317   5.190  -1.444  1.00  0.00     0.001 A 
HETATM    6  C7  UNL     1      -6.111   4.062  -1.664  1.00  0.00     0.001 A 
HETATM    7  C8  UNL     1      -5.610   2.786  -1.390  1.00  0.00     0.012 A 
HETATM    8  C9  UNL     1      -4.306   2.632  -0.892  1.00  0.00    -0.025 A 
HETATM    9  C10 UNL     1      -3.798   1.359  -0.606  1.00  0.00     0.025 A 
HETATM   10  C11 UNL     1      -2.497   1.205  -0.102  1.00  0.00    -0.011 A 
ENDROOT
BRANCH   1  11
HETATM   11  C1  UNL     1      -0.264   2.239   0.532  1.00  0.00     0.193 C 
HETATM   12  O1  UNL     1       0.157   3.015   1.432  1.00  0.00    -0.287 OA
BRANCH  11  13
HETATM   13  C18 UNL     1       0.658   1.238  -0.051  1.00  0.00     0.016 A 
HETATM   14  C19 UNL     1       1.580   0.569   0.767  1.00  0.00     0.028 A 
HETATM   15  C20 UNL     1       2.391  -0.462   0.253  1.00  0.00    -0.016 A 
HETATM   16  C21 UNL     1       2.290  -0.794  -1.118  1.00  0.00    -0.038 A 
HETATM   17  C31 UNL     1       3.299  -1.205   1.176  1.00  0.00     0.001 A 
HETATM   18  C22 UNL     1       1.395  -0.092  -1.940  1.00  0.00     0.009 A 
HETATM   19  C24 UNL     1       3.163  -1.857  -1.718  1.00  0.00     0.142 C 
HETATM   20  C23 UNL     1       0.584   0.911  -1.411  1.00  0.00     0.016 A 
HETATM   21  C25 UNL     1       4.580  -1.387  -1.672  1.00  0.00     0.226 C 
HETATM   22  O4  UNL     1       5.201  -1.178  -2.748  1.00  0.00    -0.273 OA
HETATM   23  N2  UNL     1       5.233  -1.149  -0.420  1.00  0.00    -0.326 N 
HETATM   24  C26 UNL     1       4.653  -1.496   0.849  1.00  0.00     0.045 A 
HETATM   25  H16 UNL     1       6.249  -0.907  -0.448  1.00  0.00     0.169 HD
HETATM   26  C27 UNL     1       5.474  -2.119   1.803  1.00  0.00     0.030 A 
HETATM   27  C28 UNL     1       4.965  -2.495   3.046  1.00  0.00     0.002 A 
HETATM   28  C29 UNL     1       3.631  -2.245   3.358  1.00  0.00     0.001 A 
HETATM   29  C30 UNL     1       2.805  -1.603   2.435  1.00  0.00     0.014 A 
ENDBRANCH  11  13
ENDBRANCH   1  11
BRANCH  10  30
HETATM   30  C12 UNL     1      -2.031  -0.154   0.253  1.00  0.00    -0.023 A 
HETATM   31  C13 UNL     1      -1.641  -0.439   1.606  1.00  0.00     0.014 A 
HETATM   32  C14 UNL     1      -1.082  -1.686   1.978  1.00  0.00     0.032 A 
HETATM   33  C15 UNL     1      -0.938  -2.605   0.960  1.00  0.00     0.066 A 
HETATM   34  C16 UNL     1      -1.347  -2.332  -0.377  1.00  0.00     0.107 A 
HETATM   35  N1  UNL     1      -0.419  -3.970   0.734  1.00  0.00    -0.279 N 
HETATM   36  C17 UNL     1      -1.908  -1.135  -0.768  1.00  0.00     0.040 A 
HETATM   37  S1  UNL     1      -0.831  -3.833  -0.878  1.00  0.00     0.265 S 
HETATM   38  O2  UNL     1      -1.926  -4.776  -1.289  1.00  0.00    -0.200 OA
HETATM   39  O3  UNL     1       0.361  -3.818  -1.792  1.00  0.00    -0.200 OA
HETATM   40  H10 UNL     1       0.024  -4.705   1.327  1.00  0.00     0.179 HD
ENDBRANCH  10  30
TORSDOF 3
