REMARK  3 active torsions:
REMARK  status: ('A' for Active; 'I' for Inactive)
REMARK    1  A    between atoms: C6_7  and  C7_8 
REMARK    2  A    between atoms: C7_8  and  C8_9 
REMARK    3  A    between atoms: C8_9  and  N2_10 
REMARK       I    between atoms: N2_10  and  C9_11 
REMARK       I    between atoms: C9_11  and  N3_13 
ROOT
HETATM    1  N2  UNL     1       0.265  -0.238  -0.172  1.00  0.00    -0.343 N 
HETATM    2  C9  UNL     1      -0.611  -0.202   0.968  1.00  0.00     0.318 C 
HETATM    3  O1  UNL     1      -0.108  -0.266   2.123  1.00  0.00    -0.247 OA
HETATM    4  N3  UNL     1      -2.048  -0.078   0.825  1.00  0.00    -0.332 N 
HETATM    5  C10 UNL     1      -2.717  -0.419  -0.446  1.00  0.00     0.133 C 
HETATM    6  C11 UNL     1      -3.295   0.825  -1.163  1.00  0.00     0.018 C 
HETATM    7  C12 UNL     1      -2.205   1.632  -1.877  1.00  0.00     0.013 C 
HETATM    8  C13 UNL     1      -4.099   1.737  -0.218  1.00  0.00     0.132 C 
HETATM    9  N4  UNL     1      -4.919   0.933   0.696  1.00  0.00    -0.342 N 
HETATM   10  C14 UNL     1      -6.265   0.587   0.348  1.00  0.00     0.244 C 
HETATM   11  O2  UNL     1      -6.938   1.286  -0.457  1.00  0.00    -0.271 OA
HETATM   12  C15 UNL     1      -6.849  -0.633   0.971  1.00  0.00     0.270 C 
HETATM   13  O3  UNL     1      -5.820  -1.586   1.133  1.00  0.00    -0.380 OA
HETATM   14  C16 UNL     1      -4.887  -1.158   2.114  1.00  0.00     0.195 C 
HETATM   15  C17 UNL     1      -4.357   0.301   1.908  1.00  0.00     0.129 C 
HETATM   16  C18 UNL     1      -2.807   0.382   2.012  1.00  0.00     0.155 C 
HETATM   17  H10 UNL     1      -0.099  -0.017  -1.123  1.00  0.00     0.164 HD
ENDROOT
BRANCH   1  18
HETATM   18  C8  UNL     1       1.693  -0.516  -0.017  1.00  0.00     0.129 C 
BRANCH  18  19
HETATM   19  C7  UNL     1       2.407  -0.488  -1.371  1.00  0.00     0.062 C 
BRANCH  19  20
HETATM   20  C6  UNL     1       3.867  -0.775  -1.202  1.00  0.00    -0.003 A 
HETATM   21  C5  UNL     1       4.867   0.107  -0.877  1.00  0.00     0.099 A 
HETATM   22  N1  UNL     1       4.812   1.448  -0.682  1.00  0.00    -0.258 NA
HETATM   23  C20 UNL     1       6.017  -0.611  -0.742  1.00  0.00     0.110 A 
HETATM   24  C4  UNL     1       5.959   2.110  -0.343  1.00  0.00     0.118 A 
HETATM   25  C3  UNL     1       7.179   1.408  -0.196  1.00  0.00     0.029 A 
HETATM   26  C2  UNL     1       7.220   0.014  -0.412  1.00  0.00    -0.024 A 
HETATM   27  C1  UNL     1       8.481  -0.771  -0.216  1.00  0.00     0.051 C 
HETATM   28  O4  UNL     1       5.783  -1.886  -0.954  1.00  0.00    -0.319 OA
HETATM   29  C19 UNL     1       4.494  -2.019  -1.226  1.00  0.00     0.152 A 
ENDBRANCH  19  20
ENDBRANCH  18  19
ENDBRANCH   1  18
TORSDOF 3
