REMARK  3 active torsions:
REMARK  status: ('A' for Active; 'I' for Inactive)
REMARK       I    between atoms: C1_2  and  N1_3 
REMARK    1  A    between atoms: C1_2  and  C12_16 
REMARK    2  A    between atoms: N1_3  and  C2_4 
REMARK    3  A    between atoms: C9_12  and  O2_13 
ROOT
HETATM    1  C12 UNL     1       0.707  -1.593   0.872  1.00  0.00     0.033 A 
HETATM    2  C13 UNL     1      -0.065  -2.508   1.592  1.00  0.00     0.018 A 
HETATM    3  C14 UNL     1      -1.378  -2.203   1.937  1.00  0.00     0.013 A 
HETATM    4  C15 UNL     1      -1.971  -0.987   1.561  1.00  0.00    -0.029 A 
HETATM    5  C16 UNL     1      -1.193  -0.030   0.838  1.00  0.00    -0.043 A 
HETATM    6  C17 UNL     1       0.130  -0.374   0.486  1.00  0.00     0.025 A 
HETATM    7  C18 UNL     1      -1.672   1.304   0.281  1.00  0.00     0.078 C 
HETATM    8  C19 UNL     1      -2.844   1.980   0.953  1.00  0.00    -0.043 A 
HETATM    9  C20 UNL     1      -2.623   2.835   2.045  1.00  0.00     0.008 A 
HETATM   10  C21 UNL     1      -3.676   3.581   2.581  1.00  0.00     0.001 A 
HETATM   11  C22 UNL     1      -4.956   3.486   2.029  1.00  0.00     0.001 A 
HETATM   12  C23 UNL     1      -5.194   2.625   0.955  1.00  0.00     0.013 A 
HETATM   13  C24 UNL     1      -4.145   1.867   0.414  1.00  0.00    -0.018 A 
HETATM   14  C25 UNL     1      -4.445   0.800  -0.559  1.00  0.00    -0.015 A 
HETATM   15  C26 UNL     1      -4.619   1.097  -1.918  1.00  0.00     0.013 A 
HETATM   16  C27 UNL     1      -4.825   0.063  -2.836  1.00  0.00     0.001 A 
HETATM   17  C28 UNL     1      -4.863  -1.266  -2.401  1.00  0.00     0.001 A 
HETATM   18  C29 UNL     1      -4.701  -1.566  -1.045  1.00  0.00     0.012 A 
HETATM   19  C30 UNL     1      -4.476  -0.537  -0.123  1.00  0.00    -0.025 A 
HETATM   20  C31 UNL     1      -4.451  -0.823   1.320  1.00  0.00     0.013 C 
HETATM   21  C32 UNL     1      -3.345  -0.786   2.072  1.00  0.00     0.013 C 
ENDROOT
BRANCH   1  22
HETATM   22  C1  UNL     1       2.102  -1.935   0.503  1.00  0.00     0.256 C 
HETATM   23  O1  UNL     1       2.417  -3.147   0.349  1.00  0.00    -0.267 OA
HETATM   24  N1  UNL     1       3.094  -0.909   0.318  1.00  0.00    -0.322 N 
HETATM   25  H1  UNL     1       2.842   0.089   0.492  1.00  0.00     0.169 HD
BRANCH  24  26
HETATM   26  C2  UNL     1       4.443  -1.193  -0.086  1.00  0.00     0.046 A 
HETATM   27  C3  UNL     1       5.198  -2.134   0.631  1.00  0.00     0.033 A 
HETATM   28  C4  UNL     1       6.525  -2.391   0.291  1.00  0.00     0.045 A 
HETATM   29  C5  UNL     1       7.128  -1.708  -0.765  1.00  0.00     0.127 A 
HETATM   30  F1  UNL     1       8.424  -1.978  -1.069  1.00  0.00    -0.205 F 
HETATM   31  C6  UNL     1       6.399  -0.756  -1.497  1.00  0.00     0.015 A 
HETATM   32  C7  UNL     1       6.998  -0.066  -2.564  1.00  0.00     0.018 A 
HETATM   33  C11 UNL     1       5.044  -0.492  -1.160  1.00  0.00     0.007 A 
HETATM   34  C8  UNL     1       6.268   0.870  -3.298  1.00  0.00     0.037 A 
HETATM   35  C9  UNL     1       4.933   1.128  -2.983  1.00  0.00     0.066 A 
HETATM   36  C10 UNL     1       4.321   0.450  -1.920  1.00  0.00     0.051 A 
BRANCH  35  37
HETATM   37  O2  UNL     1       4.220   2.060  -3.733  1.00  0.00    -0.361 OA
HETATM   38  H6  UNL     1       3.249   2.272  -3.533  1.00  0.00     0.217 HD
ENDBRANCH  35  37
ENDBRANCH  24  26
ENDBRANCH   1  22
TORSDOF 3
