REMARK  3 active torsions:
REMARK  status: ('A' for Active; 'I' for Inactive)
REMARK    1  A    between atoms: N1_2  and  C2_3 
REMARK    2  A    between atoms: C7_8  and  C8_9 
REMARK       I    between atoms: C8_9  and  N2_11 
REMARK    3  A    between atoms: C13_16  and  C14_17 
REMARK       I    between atoms: C14_17  and  N3_19 
ROOT
HETATM    1  C8  UNL     1       1.622   0.057  -0.443  1.00  0.00     0.256 C 
HETATM    2  O1  UNL     1       1.010   0.952  -1.083  1.00  0.00    -0.267 OA
HETATM    3  N2  UNL     1       0.959  -1.188  -0.130  1.00  0.00    -0.334 N 
HETATM    4  C9  UNL     1       1.434  -2.048   0.965  1.00  0.00     0.127 C 
HETATM    5  C10 UNL     1       2.019  -3.359   0.408  1.00  0.00     0.020 C 
HETATM    6  C11 UNL     1       1.412  -3.751  -0.953  1.00  0.00     0.004 C 
HETATM    7  C12 UNL     1      -0.034  -3.260  -1.083  1.00  0.00     0.035 C 
HETATM    8  C13 UNL     1      -0.099  -1.710  -1.019  1.00  0.00     0.180 C 
ENDROOT
BRANCH   8   9
HETATM    9  C14 UNL     1      -1.484  -1.233  -0.610  1.00  0.00     0.247 C 
HETATM   10  O2  UNL     1      -2.479  -1.983  -0.807  1.00  0.00    -0.271 OA
HETATM   11  N3  UNL     1      -1.722   0.118  -0.177  1.00  0.00    -0.314 N 
HETATM   12  C15 UNL     1      -1.358   0.548   1.172  1.00  0.00     0.158 C 
HETATM   13  C24 UNL     1      -2.454   1.008  -1.037  1.00  0.00     0.046 A 
HETATM   14  C16 UNL     1      -2.562   0.487   2.098  1.00  0.00     0.189 C 
HETATM   15  O3  UNL     1      -3.447   1.563   1.857  1.00  0.00    -0.380 OA
HETATM   16  C17 UNL     1      -4.302   1.388   0.734  1.00  0.00     0.152 C 
HETATM   17  C18 UNL     1      -5.097   0.070   0.705  1.00  0.00     0.045 C 
HETATM   18  C19 UNL     1      -3.626   1.681  -0.599  1.00  0.00    -0.003 A 
HETATM   19  C20 UNL     1      -4.270   2.566  -1.489  1.00  0.00     0.012 A 
HETATM   20  C21 UNL     1      -3.770   2.784  -2.773  1.00  0.00     0.001 A 
HETATM   21  C22 UNL     1      -2.632   2.108  -3.202  1.00  0.00     0.002 A 
HETATM   22  C23 UNL     1      -1.982   1.223  -2.344  1.00  0.00     0.030 A 
ENDBRANCH   8   9
BRANCH   1  23
HETATM   23  C7  UNL     1       3.033   0.294  -0.074  1.00  0.00     0.058 A 
HETATM   24  C2  UNL     1       3.422   1.386   0.743  1.00  0.00     0.043 A 
HETATM   25  C3  UNL     1       4.793   1.573   1.016  1.00  0.00     0.030 A 
HETATM   26  C4  UNL     1       5.750   0.698   0.497  1.00  0.00     0.002 A 
HETATM   27  C5  UNL     1       5.359  -0.373  -0.303  1.00  0.00     0.001 A 
HETATM   28  C6  UNL     1       4.010  -0.572  -0.591  1.00  0.00     0.019 A 
BRANCH  24  29
HETATM   29  N1  UNL     1       2.432   2.267   1.315  1.00  0.00    -0.393 N 
HETATM   30  C1  UNL     1       2.762   3.487   2.044  1.00  0.00     0.146 C 
HETATM   31  H4  UNL     1       1.418   2.042   1.220  1.00  0.00     0.159 HD
ENDBRANCH  24  29
ENDBRANCH   1  23
TORSDOF 3
