REMARK  4 active torsions:
REMARK  status: ('A' for Active; 'I' for Inactive)
REMARK    1  A    between atoms: C8_8  and  C9_9 
REMARK    2  A    between atoms: C9_9  and  N1_10 
REMARK    3  A    between atoms: C13_15  and  C14_16 
REMARK    4  A    between atoms: C14_16  and  C15_17 
REMARK       I    between atoms: C15_17  and  N2_19 
ROOT
HETATM    1  N1  UNL     1      -0.511  -1.476  -2.034  1.00  0.00     0.093 N 
HETATM    2  C10 UNL     1      -1.252  -1.466  -3.320  1.00  0.00     0.283 C 
HETATM    3  C11 UNL     1      -2.780  -1.477  -3.172  1.00  0.00     0.104 C 
HETATM    4  S1  UNL     1      -3.344  -0.378  -1.831  1.00  0.00    -0.167 SA
HETATM    5  C12 UNL     1      -3.320  -1.653  -0.513  1.00  0.00     0.080 C 
HETATM    6  C13 UNL     1      -1.909  -2.048  -0.019  1.00  0.00     0.032 C 
HETATM    7  C18 UNL     1      -0.966  -2.565  -1.133  1.00  0.00     0.278 C 
ENDROOT
BRANCH   1   8
HETATM    8  C9  UNL     1       0.941  -1.592  -2.325  1.00  0.00     0.311 C 
BRANCH   8   9
HETATM    9  C8  UNL     1       1.769  -1.055  -1.186  1.00  0.00    -0.029 A 
HETATM   10  C7  UNL     1       2.378  -1.926  -0.268  1.00  0.00     0.010 A 
HETATM   11  C6  UNL     1       3.100  -1.422   0.816  1.00  0.00     0.013 A 
HETATM   12  C5  UNL     1       3.230  -0.038   0.994  1.00  0.00    -0.026 A 
HETATM   13  C4  UNL     1       3.936   0.479   2.090  1.00  0.00     0.013 A 
HETATM   14  C20 UNL     1       2.641   0.847   0.061  1.00  0.00    -0.025 A 
HETATM   15  C3  UNL     1       4.059   1.861   2.260  1.00  0.00     0.007 A 
HETATM   16  C2  UNL     1       3.492   2.744   1.329  1.00  0.00    -0.061 A 
HETATM   17  C1  UNL     1       3.593   4.226   1.537  1.00  0.00     0.048 C 
HETATM   18  C21 UNL     1       2.770   2.233   0.239  1.00  0.00     0.019 A 
HETATM   19  C19 UNL     1       1.922   0.331  -1.027  1.00  0.00     0.021 A 
ENDBRANCH   8   9
ENDBRANCH   1   8
BRANCH   6  20
HETATM   20  C14 UNL     1      -1.237  -1.027   0.946  1.00  0.00     0.110 C 
BRANCH  20  21
HETATM   21  C15 UNL     1      -1.497   0.427   0.623  1.00  0.00     0.219 C 
HETATM   22  O1  UNL     1      -0.871   0.946  -0.339  1.00  0.00    -0.273 OA
HETATM   23  N2  UNL     1      -2.454   1.227   1.355  1.00  0.00    -0.361 N 
HETATM   24  C16 UNL     1      -3.031   0.765   2.623  1.00  0.00     0.152 C 
HETATM   25  C17 UNL     1      -2.816   2.547   0.829  1.00  0.00     0.152 C 
ENDBRANCH  20  21
ENDBRANCH   6  20
TORSDOF 4
