REMARK  4 active torsions:
REMARK  status: ('A' for Active; 'I' for Inactive)
REMARK    1  A    between atoms: C9_9  and  N1_10 
REMARK    2  A    between atoms: N1_10  and  C10_11 
REMARK    3  A    between atoms: C10_11  and  C11_12 
REMARK    4  A    between atoms: C14_15  and  C15_16 
ROOT
HETATM    1  C1  UNL     1      -3.327   3.173  -2.343  1.00  0.00     0.048 C 
HETATM    2  C2  UNL     1      -3.483   1.811  -1.735  1.00  0.00    -0.061 A 
HETATM    3  C3  UNL     1      -4.065   0.768  -2.466  1.00  0.00     0.007 A 
HETATM    4  C4  UNL     1      -4.229  -0.491  -1.888  1.00  0.00     0.013 A 
HETATM    5  C5  UNL     1      -3.815  -0.733  -0.567  1.00  0.00    -0.019 A 
HETATM    6  C6  UNL     1      -3.233   0.321   0.181  1.00  0.00    -0.044 A 
HETATM    7  C7  UNL     1      -3.095   1.591  -0.408  1.00  0.00     0.014 A 
HETATM    8  C8  UNL     1      -2.813   0.117   1.624  1.00  0.00     0.075 C 
HETATM    9  C9  UNL     1      -1.613  -0.858   1.811  1.00  0.00     0.229 C 
HETATM   10  C23 UNL     1      -1.576  -2.052   0.830  1.00  0.00     0.075 C 
HETATM   11  C24 UNL     1      -2.923  -2.722   0.712  1.00  0.00    -0.045 A 
HETATM   12  C25 UNL     1      -3.122  -3.995   1.275  1.00  0.00     0.008 A 
HETATM   13  C26 UNL     1      -4.348  -4.647   1.133  1.00  0.00     0.001 A 
HETATM   14  C27 UNL     1      -5.388  -4.034   0.434  1.00  0.00     0.001 A 
HETATM   15  C28 UNL     1      -5.210  -2.764  -0.119  1.00  0.00     0.013 A 
HETATM   16  C29 UNL     1      -3.982  -2.092   0.015  1.00  0.00    -0.019 A 
ENDROOT
BRANCH   9  17
HETATM   17  N1  UNL     1      -0.302  -0.178   1.854  1.00  0.00     0.092 N 
HETATM   18  H10 UNL     1      -0.243   0.387   2.734  1.00  0.00     0.316 HD
BRANCH  17  19
HETATM   19  C10 UNL     1      -0.028   0.711   0.714  1.00  0.00     0.308 C 
BRANCH  19  20
HETATM   20  C11 UNL     1       1.457   0.822   0.504  1.00  0.00    -0.030 A 
HETATM   21  C12 UNL     1       2.218  -0.331   0.256  1.00  0.00     0.010 A 
HETATM   22  C13 UNL     1       3.591  -0.234   0.019  1.00  0.00     0.013 A 
HETATM   23  C14 UNL     1       4.230   1.020   0.016  1.00  0.00    -0.026 A 
HETATM   24  C21 UNL     1       3.462   2.173   0.264  1.00  0.00     0.013 A 
HETATM   25  C22 UNL     1       2.088   2.075   0.504  1.00  0.00     0.010 A 
BRANCH  23  26
HETATM   26  C15 UNL     1       5.686   1.126  -0.261  1.00  0.00    -0.026 A 
HETATM   27  C16 UNL     1       6.486   2.040   0.452  1.00  0.00     0.012 A 
HETATM   28  C17 UNL     1       7.854   2.147   0.178  1.00  0.00     0.001 A 
HETATM   29  C18 UNL     1       8.436   1.347  -0.806  1.00  0.00     0.000 A 
HETATM   30  C19 UNL     1       7.655   0.434  -1.518  1.00  0.00     0.001 A 
HETATM   31  C20 UNL     1       6.287   0.323  -1.249  1.00  0.00     0.012 A 
ENDBRANCH  23  26
ENDBRANCH  19  20
ENDBRANCH  17  19
ENDBRANCH   9  17
TORSDOF 4
