REMARK  1 active torsions:
REMARK  status: ('A' for Active; 'I' for Inactive)
REMARK       I    between atoms: N3_9  and  C7_10 
REMARK    1  A    between atoms: C7_10  and  C8_12 
ROOT
HETATM    1  C1  UNL     1      -5.210   1.833   1.966  1.00  0.00     0.173 C 
HETATM    2  N1  UNL     1      -4.345   0.964   1.175  1.00  0.00    -0.303 N 
HETATM    3  N2  UNL     1      -3.829  -0.206   1.746  1.00  0.00    -0.186 NA
HETATM    4  C2  UNL     1      -3.290  -1.107   0.979  1.00  0.00     0.034 C 
HETATM    5  C3  UNL     1      -3.704  -1.184  -0.486  1.00  0.00     0.058 C 
HETATM    6  C4  UNL     1      -4.074   0.190  -1.099  1.00  0.00     0.034 C 
HETATM    7  C5  UNL     1      -3.810   1.357  -0.135  1.00  0.00     0.122 C 
HETATM    8  C6  UNL     1      -2.298   1.759  -0.021  1.00  0.00     0.153 C 
HETATM    9  N3  UNL     1      -1.334   0.627  -0.024  1.00  0.00    -0.344 N 
HETATM   10  C7  UNL     1      -0.647   0.282  -1.250  1.00  0.00     0.272 C 
HETATM   11  O1  UNL     1      -1.117   0.639  -2.364  1.00  0.00    -0.266 OA
HETATM   12  C18 UNL     1      -1.050  -0.123   1.225  1.00  0.00     0.132 C 
HETATM   13  C19 UNL     1      -1.868  -1.430   1.305  1.00  0.00     0.076 C 
ENDROOT
BRANCH  10  14
HETATM   14  C8  UNL     1       0.626  -0.458  -1.243  1.00  0.00     0.128 A 
HETATM   15  C9  UNL     1       1.821  -0.020  -0.712  1.00  0.00     0.002 A 
HETATM   16  C10 UNL     1       2.700  -1.054  -0.929  1.00  0.00     0.064 A 
HETATM   17  C17 UNL     1       2.159   1.258  -0.006  1.00  0.00     0.044 C 
HETATM   18  N4  UNL     1       2.090  -2.049  -1.602  1.00  0.00    -0.176 NA
HETATM   19  C12 UNL     1       4.152  -1.002  -0.571  1.00  0.00     0.070 C 
HETATM   20  N5  UNL     1       0.832  -1.674  -1.798  1.00  0.00    -0.268 N 
HETATM   21  C11 UNL     1      -0.169  -2.533  -2.422  1.00  0.00     0.180 C 
HETATM   22  C13 UNL     1       4.429   0.097   0.500  1.00  0.00    -0.042 C 
HETATM   23  C14 UNL     1       5.945   0.372   0.552  1.00  0.00     0.015 C 
HETATM   24  C15 UNL     1       3.975  -0.395   1.894  1.00  0.00     0.015 C 
HETATM   25  C16 UNL     1       3.690   1.421   0.122  1.00  0.00     0.014 C 
ENDBRANCH  10  14
TORSDOF 1
