REMARK  6 active torsions:
REMARK  status: ('A' for Active; 'I' for Inactive)
REMARK    1  A    between atoms: C2_2  and  C3_3 
REMARK    2  A    between atoms: C6_6  and  N1_7 
REMARK    3  A    between atoms: C14_16  and  C15_17 
REMARK    4  A    between atoms: C15_17  and  O3_19 
REMARK    5  A    between atoms: C18_22  and  C19_23 
REMARK    6  A    between atoms: C22_26  and  O4_27 
ROOT
HETATM    1  C3  UNL     1      -2.727   0.834   1.552  1.00  0.00    -0.047 A 
HETATM    2  C4  UNL     1      -1.814   1.108   2.582  1.00  0.00     0.010 A 
HETATM    3  C5  UNL     1      -0.468   0.763   2.455  1.00  0.00     0.030 A 
HETATM    4  C6  UNL     1       0.000   0.119   1.297  1.00  0.00     0.031 A 
HETATM    5  C17 UNL     1      -0.912  -0.170   0.270  1.00  0.00     0.042 A 
HETATM    6  C18 UNL     1      -2.266   0.183   0.382  1.00  0.00    -0.018 A 
ENDROOT
BRANCH   4   7
HETATM    7  N1  UNL     1       1.394  -0.246   1.170  1.00  0.00    -0.374 N 
HETATM    8  C7  UNL     1       1.760  -1.574   0.661  1.00  0.00     0.150 C 
HETATM    9  C8  UNL     1       2.222  -1.474  -0.794  1.00  0.00     0.195 C 
HETATM   10  O1  UNL     1       2.851  -0.221  -1.054  1.00  0.00    -0.348 OA
HETATM   11  C9  UNL     1       3.944   0.226  -0.308  1.00  0.00     0.093 A 
HETATM   12  C10 UNL     1       3.786   0.551   1.064  1.00  0.00    -0.006 A 
HETATM   13  C14 UNL     1       5.213   0.345  -0.926  1.00  0.00     0.071 A 
HETATM   14  C11 UNL     1       4.906   0.969   1.798  1.00  0.00     0.012 A 
HETATM   15  C16 UNL     1       2.432   0.623   1.752  1.00  0.00     0.164 C 
HETATM   16  C12 UNL     1       6.160   1.057   1.197  1.00  0.00     0.002 A 
HETATM   17  C13 UNL     1       6.313   0.754  -0.154  1.00  0.00     0.021 A 
BRANCH  13  18
HETATM   18  C15 UNL     1       5.421   0.034  -2.365  1.00  0.00     0.179 C 
HETATM   19  O2  UNL     1       4.455  -0.293  -3.106  1.00  0.00    -0.646 OA
BRANCH  18  20
HETATM   20  O3  UNL     1       6.698   0.105  -2.917  1.00  0.00    -0.773 OA
HETATM   21  H15 UNL     1       6.854  -0.102  -3.896  1.00  0.00     0.167 HD
ENDBRANCH  18  20
ENDBRANCH  13  18
ENDBRANCH   4   7
BRANCH   6  22
HETATM   22  C19 UNL     1      -3.171  -0.152  -0.737  1.00  0.00    -0.025 A 
HETATM   23  C20 UNL     1      -3.672   0.858  -1.572  1.00  0.00     0.015 A 
HETATM   24  C21 UNL     1      -4.511   0.534  -2.642  1.00  0.00     0.037 A 
HETATM   25  C22 UNL     1      -4.847  -0.804  -2.892  1.00  0.00     0.065 A 
HETATM   26  C23 UNL     1      -4.336  -1.814  -2.070  1.00  0.00     0.037 A 
HETATM   27  C24 UNL     1      -3.497  -1.491  -0.999  1.00  0.00     0.015 A 
BRANCH  25  28
HETATM   28  O4  UNL     1      -5.684  -1.139  -3.954  1.00  0.00    -0.361 OA
HETATM   29  H21 UNL     1      -6.069  -0.431  -4.569  1.00  0.00     0.217 HD
ENDBRANCH  25  28
ENDBRANCH   6  22
BRANCH   1  30
HETATM   30  C2  UNL     1      -4.188   1.155   1.774  1.00  0.00     0.035 C 
HETATM   31  C1  UNL     1      -4.933  -0.058   2.323  1.00  0.00     0.010 C 
ENDBRANCH   1  30
TORSDOF 6
