REMARK  2 active torsions:
REMARK  status: ('A' for Active; 'I' for Inactive)
REMARK       I    between atoms: C1_2  and  N1_3 
REMARK    1  A    between atoms: C1_2  and  C29_35 
REMARK       I    between atoms: N1_3  and  C2_4 
REMARK       I    between atoms: C2_4  and  N2_6 
REMARK       I    between atoms: N2_6  and  C3_7 
REMARK    2  A    between atoms: C3_7  and  C4_9 
ROOT
HETATM    1  C4  UNL     1      -0.233   1.192  -0.707  1.00  0.00     0.033 A 
HETATM    2  C5  UNL     1      -1.292   0.546  -1.361  1.00  0.00     0.030 A 
HETATM    3  C6  UNL     1      -2.633   0.863  -1.080  1.00  0.00    -0.010 A 
HETATM    4  C7  UNL     1      -2.933   1.879  -0.129  1.00  0.00     0.026 A 
HETATM    5  C8  UNL     1      -1.854   2.492   0.543  1.00  0.00     0.017 A 
HETATM    6  C9  UNL     1      -0.530   2.155   0.262  1.00  0.00     0.018 A 
HETATM    7  C10 UNL     1      -4.300   2.445   0.119  1.00  0.00     0.194 C 
HETATM    8  O4  UNL     1      -4.378   3.615   0.590  1.00  0.00    -0.287 OA
HETATM    9  C11 UNL     1      -5.587   1.757  -0.143  1.00  0.00     0.026 A 
HETATM   10  C12 UNL     1      -6.552   2.434  -0.912  1.00  0.00     0.016 A 
HETATM   11  C13 UNL     1      -7.844   1.924  -1.045  1.00  0.00     0.001 A 
HETATM   12  C14 UNL     1      -8.200   0.743  -0.394  1.00  0.00     0.001 A 
HETATM   13  C15 UNL     1      -7.260   0.060   0.379  1.00  0.00     0.013 A 
HETATM   14  C16 UNL     1      -5.955   0.558   0.516  1.00  0.00    -0.011 A 
HETATM   15  C17 UNL     1      -4.955  -0.295   1.183  1.00  0.00    -0.014 A 
HETATM   16  C18 UNL     1      -4.854  -0.329   2.580  1.00  0.00     0.013 A 
HETATM   17  C19 UNL     1      -3.938  -1.190   3.192  1.00  0.00     0.001 A 
HETATM   18  C20 UNL     1      -3.134  -2.030   2.415  1.00  0.00     0.001 A 
HETATM   19  C21 UNL     1      -3.239  -2.008   1.020  1.00  0.00     0.013 A 
HETATM   20  C22 UNL     1      -4.148  -1.142   0.401  1.00  0.00    -0.014 A 
HETATM   21  C23 UNL     1      -4.232  -1.062  -1.069  1.00  0.00    -0.014 A 
HETATM   22  C24 UNL     1      -5.040  -1.972  -1.768  1.00  0.00     0.013 A 
HETATM   23  C25 UNL     1      -5.238  -1.821  -3.146  1.00  0.00     0.001 A 
HETATM   24  C26 UNL     1      -4.648  -0.754  -3.825  1.00  0.00     0.001 A 
HETATM   25  C27 UNL     1      -3.851   0.163  -3.133  1.00  0.00     0.013 A 
HETATM   26  C28 UNL     1      -3.648   0.026  -1.751  1.00  0.00    -0.014 A 
ENDROOT
BRANCH   1  27
HETATM   27  C3  UNL     1       1.170   0.874  -1.071  1.00  0.00     0.259 C 
HETATM   28  N2  UNL     1       2.270   1.305  -0.253  1.00  0.00    -0.275 N 
HETATM   29  C2  UNL     1       3.574   1.533  -0.812  1.00  0.00     0.329 C 
HETATM   30  H2  UNL     1       2.143   1.311   0.779  1.00  0.00     0.173 HD
HETATM   31  N1  UNL     1       4.770   1.391  -0.030  1.00  0.00    -0.275 N 
HETATM   32  O2  UNL     1       3.679   1.889  -2.016  1.00  0.00    -0.246 OA
HETATM   33  C1  UNL     1       4.933   0.450   1.044  1.00  0.00     0.261 C 
HETATM   34  H1  UNL     1       5.631   1.836  -0.417  1.00  0.00     0.173 HD
HETATM   35  O1  UNL     1       3.932   0.034   1.690  1.00  0.00    -0.267 OA
HETATM   36  O3  UNL     1       1.404   0.179  -2.102  1.00  0.00    -0.267 OA
BRANCH  33  37
HETATM   37  C29 UNL     1       6.280  -0.070   1.376  1.00  0.00     0.054 C 
HETATM   38  C30 UNL     1       6.519  -0.764   2.524  1.00  0.00     0.105 C 
HETATM   39  N3  UNL     1       7.811  -1.389   2.747  1.00  0.00    -0.368 N 
HETATM   40  C31 UNL     1       8.812  -1.232   1.728  1.00  0.00     0.013 C 
HETATM   41  H19 UNL     1       7.924  -2.098   3.505  1.00  0.00     0.165 HD
HETATM   42  C32 UNL     1       9.148  -2.314   1.002  1.00  0.00     0.025 C 
HETATM   43  C37 UNL     1       8.747   0.085   1.037  1.00  0.00     0.096 C 
HETATM   44  C33 UNL     1       9.215  -2.283  -0.491  1.00  0.00     0.002 C 
HETATM   45  C34 UNL     1       8.382  -1.553  -1.276  1.00  0.00     0.001 C 
HETATM   46  C35 UNL     1       7.284  -0.687  -0.756  1.00  0.00     0.008 C 
HETATM   47  C36 UNL     1       7.401   0.005   0.396  1.00  0.00    -0.035 C 
ENDBRANCH  33  37
ENDBRANCH   1  27
TORSDOF 2
