REMARK  3 active torsions:
REMARK  status: ('A' for Active; 'I' for Inactive)
REMARK       I    between atoms: C1_2  and  N1_3 
REMARK    1  A    between atoms: C1_2  and  C18_23 
REMARK       I    between atoms: N1_3  and  C2_4 
REMARK    2  A    between atoms: C2_4  and  C3_6 
REMARK    3  A    between atoms: C7_10  and  C8_11 
ROOT
HETATM    1  C3  UNL     1      -0.511  -0.892   0.713  1.00  0.00     0.033 A 
HETATM    2  C4  UNL     1      -0.725  -2.142   0.106  1.00  0.00     0.017 A 
HETATM    3  C5  UNL     1       0.346  -2.860  -0.429  1.00  0.00     0.002 A 
HETATM    4  C6  UNL     1       1.642  -2.347  -0.361  1.00  0.00     0.012 A 
HETATM    5  C7  UNL     1       1.884  -1.106   0.251  1.00  0.00    -0.025 A 
HETATM    6  C17 UNL     1       0.800  -0.387   0.789  1.00  0.00     0.029 A 
ENDROOT
BRANCH   1   7
HETATM    7  C2  UNL     1      -1.640  -0.119   1.288  1.00  0.00     0.258 C 
HETATM    8  N1  UNL     1      -2.985  -0.310   0.814  1.00  0.00    -0.288 N 
HETATM    9  C1  UNL     1      -4.144   0.161   1.524  1.00  0.00     0.275 C 
HETATM   10  H1  UNL     1      -3.119  -0.793  -0.100  1.00  0.00     0.172 HD
HETATM   11  O1  UNL     1      -4.031   0.592   2.703  1.00  0.00    -0.266 OA
HETATM   12  O2  UNL     1      -1.405   0.737   2.184  1.00  0.00    -0.267 OA
BRANCH   9  13
HETATM   13  C18 UNL     1      -5.485   0.130   0.904  1.00  0.00     0.102 A 
HETATM   14  C19 UNL     1      -5.778  -0.239  -0.412  1.00  0.00     0.049 A 
HETATM   15  C20 UNL     1      -7.143  -0.097  -0.527  1.00  0.00    -0.007 A 
HETATM   16  C21 UNL     1      -7.990  -0.318  -1.612  1.00  0.00     0.017 A 
HETATM   17  C25 UNL     1      -7.617   0.340   0.682  1.00  0.00     0.046 A 
HETATM   18  C22 UNL     1      -9.364  -0.079  -1.430  1.00  0.00     0.043 A 
HETATM   19  C23 UNL     1      -9.855   0.372  -0.183  1.00  0.00     0.118 A 
HETATM   20  F1  UNL     1     -11.182   0.599  -0.023  1.00  0.00    -0.206 F 
HETATM   21  C24 UNL     1      -8.973   0.587   0.893  1.00  0.00     0.072 A 
HETATM   22  N3  UNL     1      -6.615   0.484   1.565  1.00  0.00    -0.351 N 
HETATM   23  H20 UNL     1      -6.695   0.806   2.556  1.00  0.00     0.166 HD
ENDBRANCH   9  13
ENDBRANCH   1   7
BRANCH   5  24
HETATM   24  C8  UNL     1       3.264  -0.562   0.331  1.00  0.00    -0.023 A 
HETATM   25  C9  UNL     1       3.716   0.069   1.501  1.00  0.00     0.013 A 
HETATM   26  C10 UNL     1       5.018   0.565   1.580  1.00  0.00     0.012 A 
HETATM   27  C11 UNL     1       5.893   0.461   0.486  1.00  0.00     0.003 A 
HETATM   28  C12 UNL     1       5.434  -0.142  -0.704  1.00  0.00     0.077 A 
HETATM   29  C16 UNL     1       7.333   0.879   0.641  1.00  0.00     0.311 C 
HETATM   30  C13 UNL     1       4.138  -0.668  -0.764  1.00  0.00     0.049 A 
HETATM   31  O3  UNL     1       6.240  -0.241  -1.842  1.00  0.00    -0.349 OA
HETATM   32  C14 UNL     1       6.887   0.884  -2.432  1.00  0.00     0.205 C 
HETATM   33  C15 UNL     1       8.100   1.327  -1.622  1.00  0.00     0.296 C 
HETATM   34  N2  UNL     1       7.689   1.913  -0.339  1.00  0.00     0.089 N 
HETATM   35  H12 UNL     1       8.517   2.431   0.039  1.00  0.00     0.316 HD
ENDBRANCH   5  24
TORSDOF 3
