REMARK  5 active torsions:
REMARK  status: ('A' for Active; 'I' for Inactive)
REMARK    1  A    between atoms: N1_1  and  C1_2 
REMARK    2  A    between atoms: C6_7  and  N2_8 
REMARK    3  A    between atoms: C15_17  and  N3_18 
REMARK       I    between atoms: N3_18  and  C16_19 
REMARK       I    between atoms: C16_19  and  N4_21 
REMARK    4  A    between atoms: N4_21  and  C17_22 
REMARK    5  A    between atoms: C17_22  and  C18_23 
ROOT
HETATM    1  N2  UNL     1      -2.791  -0.389  -0.280  1.00  0.00    -0.314 N 
HETATM    2  C7  UNL     1      -3.454   0.365   0.781  1.00  0.00     0.137 C 
HETATM    3  C8  UNL     1      -3.620   1.828   0.356  1.00  0.00     0.059 C 
HETATM    4  C9  UNL     1      -2.398   2.706   0.581  1.00  0.00    -0.048 A 
HETATM    5  C10 UNL     1      -2.662   4.044   0.941  1.00  0.00     0.008 A 
HETATM    6  C11 UNL     1      -1.631   4.949   1.171  1.00  0.00     0.001 A 
HETATM    7  C12 UNL     1      -0.310   4.541   1.050  1.00  0.00     0.001 A 
HETATM    8  C13 UNL     1      -0.015   3.234   0.672  1.00  0.00     0.010 A 
HETATM    9  C14 UNL     1      -1.036   2.301   0.371  1.00  0.00    -0.020 A 
HETATM   10  C15 UNL     1      -0.608   0.871   0.023  1.00  0.00     0.213 C 
HETATM   11  C22 UNL     1      -1.588   0.133  -0.849  1.00  0.00     0.252 C 
HETATM   12  O3  UNL     1      -1.351  -0.044  -2.076  1.00  0.00    -0.270 OA
ENDROOT
BRANCH  10  13
HETATM   13  N3  UNL     1       0.710   0.846  -0.629  1.00  0.00    -0.326 N 
HETATM   14  C16 UNL     1       1.668  -0.196  -0.399  1.00  0.00     0.317 C 
HETATM   15  O1  UNL     1       1.429  -1.106   0.441  1.00  0.00    -0.247 OA
HETATM   16  N4  UNL     1       2.898  -0.204  -1.136  1.00  0.00    -0.343 N 
HETATM   17  H17 UNL     1       3.043   0.510  -1.885  1.00  0.00     0.164 HD
HETATM   18  H16 UNL     1       0.894   1.521  -1.406  1.00  0.00     0.165 HD
BRANCH  16  19
HETATM   19  C17 UNL     1       3.942  -1.204  -0.918  1.00  0.00     0.131 C 
BRANCH  19  20
HETATM   20  C18 UNL     1       4.692  -0.931   0.398  1.00  0.00     0.029 C 
HETATM   21  C19 UNL     1       5.425   0.380   0.406  1.00  0.00     0.034 C 
HETATM   22  C20 UNL     1       6.597   0.102   1.328  1.00  0.00     0.168 C 
HETATM   23  O2  UNL     1       6.823  -1.289   1.401  1.00  0.00    -0.391 OA
HETATM   24  C21 UNL     1       5.809  -1.926   0.658  1.00  0.00     0.173 C 
ENDBRANCH  19  20
ENDBRANCH  16  19
ENDBRANCH  10  13
BRANCH   1  25
HETATM   25  C6  UNL     1      -3.153  -1.757  -0.532  1.00  0.00     0.063 A 
HETATM   26  C1  UNL     1      -4.379  -2.090  -1.150  1.00  0.00     0.053 A 
HETATM   27  C2  UNL     1      -4.706  -3.441  -1.349  1.00  0.00     0.031 A 
HETATM   28  C3  UNL     1      -3.826  -4.450  -0.949  1.00  0.00     0.002 A 
HETATM   29  C4  UNL     1      -2.611  -4.120  -0.348  1.00  0.00     0.002 A 
HETATM   30  C5  UNL     1      -2.274  -2.781  -0.142  1.00  0.00     0.032 A 
BRANCH  26  31
HETATM   31  N1  UNL     1      -5.279  -1.076  -1.608  1.00  0.00    -0.397 N 
HETATM   32  H1  UNL     1      -6.195  -1.335  -2.038  1.00  0.00     0.156 HD
HETATM   33  H2  UNL     1      -5.036  -0.064  -1.563  1.00  0.00     0.156 HD
ENDBRANCH  26  31
ENDBRANCH   1  25
TORSDOF 5
