REMARK  7 active torsions:
REMARK  status: ('A' for Active; 'I' for Inactive)
REMARK       I    between atoms: C1_2  and  N1_3 
REMARK    1  A    between atoms: C1_2  and  C33_36 
REMARK       I    between atoms: N1_3  and  C2_4 
REMARK    2  A    between atoms: C2_4  and  C3_6 
REMARK    3  A    between atoms: C5_8  and  C32_35 
REMARK    4  A    between atoms: C6_9  and  C9_12 
REMARK    5  A    between atoms: C14_17  and  C15_18 
REMARK    6  A    between atoms: C20_23  and  C21_24 
REMARK    7  A    between atoms: C26_29  and  C27_30 
ROOT
HETATM    1  C3  UNL     1      -1.333  -0.531   0.422  1.00  0.00     0.033 A 
HETATM    2  C4  UNL     1      -2.427  -1.218   0.976  1.00  0.00     0.030 A 
HETATM    3  C5  UNL     1      -3.579  -0.526   1.386  1.00  0.00    -0.013 A 
HETATM    4  C6  UNL     1      -3.596   0.888   1.325  1.00  0.00    -0.014 A 
HETATM    5  C7  UNL     1      -2.508   1.572   0.765  1.00  0.00     0.014 A 
HETATM    6  C8  UNL     1      -1.391   0.869   0.311  1.00  0.00     0.018 A 
ENDROOT
BRANCH   1   7
HETATM    7  C2  UNL     1      -0.152  -1.288  -0.055  1.00  0.00     0.258 C 
HETATM    8  N1  UNL     1       1.151  -0.676  -0.101  1.00  0.00    -0.289 N 
HETATM    9  C1  UNL     1       2.308  -1.307  -0.680  1.00  0.00     0.258 C 
HETATM   10  H1  UNL     1       1.281   0.231   0.398  1.00  0.00     0.172 HD
HETATM   11  O1  UNL     1       2.233  -2.488  -1.114  1.00  0.00    -0.267 OA
HETATM   12  O2  UNL     1      -0.297  -2.493  -0.402  1.00  0.00    -0.267 OA
BRANCH   9  13
HETATM   13  C33 UNL     1       3.607  -0.597  -0.759  1.00  0.00     0.033 A 
HETATM   14  C34 UNL     1       3.668   0.804  -0.824  1.00  0.00     0.018 A 
HETATM   15  C35 UNL     1       4.900   1.455  -0.900  1.00  0.00     0.014 A 
HETATM   16  C36 UNL     1       6.097   0.723  -0.912  1.00  0.00    -0.014 A 
HETATM   17  C37 UNL     1       6.048  -0.686  -0.861  1.00  0.00    -0.013 A 
HETATM   18  C52 UNL     1       7.381   1.451  -1.020  1.00  0.00    -0.015 A 
HETATM   19  C38 UNL     1       4.804  -1.332  -0.793  1.00  0.00     0.030 A 
HETATM   20  C39 UNL     1       7.277  -1.509  -0.911  1.00  0.00    -0.015 A 
HETATM   21  C40 UNL     1       7.474  -2.374  -2.000  1.00  0.00     0.013 A 
HETATM   22  C44 UNL     1       8.211  -1.507   0.150  1.00  0.00    -0.025 A 
HETATM   23  C41 UNL     1       8.576  -3.232  -2.034  1.00  0.00     0.001 A 
HETATM   24  C42 UNL     1       9.484  -3.245  -0.975  1.00  0.00     0.001 A 
HETATM   25  C43 UNL     1       9.300  -2.392   0.115  1.00  0.00     0.012 A 
HETATM   26  C45 UNL     1       8.049  -0.641   1.336  1.00  0.00     0.013 C 
HETATM   27  C46 UNL     1       8.097   0.695   1.285  1.00  0.00     0.013 C 
HETATM   28  C47 UNL     1       8.323   1.449   0.034  1.00  0.00    -0.025 A 
HETATM   29  C48 UNL     1       9.485   2.228  -0.074  1.00  0.00     0.012 A 
HETATM   30  C49 UNL     1       9.733   2.974  -1.228  1.00  0.00     0.001 A 
HETATM   31  C50 UNL     1       8.813   2.962  -2.277  1.00  0.00     0.001 A 
HETATM   32  C51 UNL     1       7.639   2.212  -2.172  1.00  0.00     0.013 A 
ENDBRANCH   9  13
ENDBRANCH   1   7
BRANCH   3  33
HETATM   33  C32 UNL     1      -4.598  -1.200   2.070  1.00  0.00    -0.014 C 
HETATM   34  C27 UNL     1      -5.979  -1.055   1.722  1.00  0.00    -0.014 C 
HETATM   35  C28 UNL     1      -6.912  -1.036   2.791  1.00  0.00     0.013 C 
HETATM   36  C29 UNL     1      -6.538  -1.371   4.090  1.00  0.00     0.001 C 
HETATM   37  C30 UNL     1      -5.225  -1.728   4.366  1.00  0.00     0.001 C 
HETATM   38  C31 UNL     1      -4.257  -1.631   3.370  1.00  0.00     0.013 C 
BRANCH  34  39
HETATM   39  C26 UNL     1      -6.469  -1.275   0.388  1.00  0.00    -0.014 C 
HETATM   40  C21 UNL     1      -5.789  -0.922  -0.842  1.00  0.00    -0.014 C 
HETATM   41  C22 UNL     1      -6.078  -1.712  -1.995  1.00  0.00     0.013 C 
HETATM   42  C23 UNL     1      -7.087  -2.664  -2.008  1.00  0.00     0.001 C 
HETATM   43  C24 UNL     1      -7.857  -2.865  -0.884  1.00  0.00     0.001 C 
HETATM   44  C25 UNL     1      -7.557  -2.192   0.291  1.00  0.00     0.013 C 
BRANCH  40  45
HETATM   45  C20 UNL     1      -5.092   0.309  -1.107  1.00  0.00    -0.014 C 
HETATM   46  C15 UNL     1      -5.546   1.577  -0.619  1.00  0.00    -0.014 C 
HETATM   47  C16 UNL     1      -5.307   2.736  -1.389  1.00  0.00     0.013 C 
HETATM   48  C17 UNL     1      -4.463   2.695  -2.495  1.00  0.00     0.001 C 
HETATM   49  C18 UNL     1      -3.825   1.508  -2.834  1.00  0.00     0.001 C 
HETATM   50  C19 UNL     1      -4.131   0.333  -2.151  1.00  0.00     0.013 C 
BRANCH  46  51
HETATM   51  C14 UNL     1      -5.789   1.815   0.741  1.00  0.00    -0.014 A 
HETATM   52  C9  UNL     1      -4.752   1.601   1.685  1.00  0.00    -0.014 A 
HETATM   53  C10 UNL     1      -4.938   1.986   3.022  1.00  0.00     0.013 A 
HETATM   54  C11 UNL     1      -6.119   2.620   3.414  1.00  0.00     0.001 A 
HETATM   55  C12 UNL     1      -7.119   2.881   2.476  1.00  0.00     0.001 A 
HETATM   56  C13 UNL     1      -6.948   2.501   1.143  1.00  0.00     0.013 A 
ENDBRANCH  46  51
ENDBRANCH  40  45
ENDBRANCH  34  39
ENDBRANCH   3  33
TORSDOF 7
