REMARK  6 active torsions:
REMARK  status: ('A' for Active; 'I' for Inactive)
REMARK       I    between atoms: C1_2  and  N1_3 
REMARK    1  A    between atoms: C1_2  and  C16_21 
REMARK    2  A    between atoms: N1_3  and  C2_4 
REMARK    3  A    between atoms: C18_23  and  C39_45 
REMARK    4  A    between atoms: C19_24  and  C22_28 
REMARK    5  A    between atoms: C27_33  and  C28_34 
REMARK    6  A    between atoms: C33_39  and  C34_40 
ROOT
HETATM    1  C16 UNL     1      -0.452  -0.440   0.600  1.00  0.00     0.071 A 
HETATM    2  C17 UNL     1      -1.502  -0.238   1.510  1.00  0.00     0.033 A 
HETATM    3  C18 UNL     1      -2.806  -0.662   1.211  1.00  0.00    -0.013 A 
HETATM    4  C19 UNL     1      -3.062  -1.318  -0.012  1.00  0.00    -0.011 A 
HETATM    5  C20 UNL     1      -2.007  -1.542  -0.908  1.00  0.00     0.056 A 
HETATM    6  C21 UNL     1      -0.713  -1.110  -0.609  1.00  0.00     0.133 A 
HETATM    7  F2  UNL     1       0.287  -1.402  -1.478  1.00  0.00    -0.205 F 
ENDROOT
BRANCH   1   8
HETATM    8  C1  UNL     1       0.912   0.018   0.946  1.00  0.00     0.259 C 
HETATM    9  O1  UNL     1       1.308  -0.087   2.139  1.00  0.00    -0.267 OA
HETATM   10  N1  UNL     1       1.778   0.575  -0.059  1.00  0.00    -0.320 N 
HETATM   11  H1  UNL     1       1.404   0.705  -1.025  1.00  0.00     0.169 HD
BRANCH  10  12
HETATM   12  C2  UNL     1       3.175   0.840   0.150  1.00  0.00     0.075 A 
HETATM   13  C3  UNL     1       3.621   1.510   1.296  1.00  0.00     0.035 A 
HETATM   14  C4  UNL     1       4.979   1.761   1.479  1.00  0.00     0.033 A 
HETATM   15  C5  UNL     1       5.921   1.359   0.522  1.00  0.00     0.049 A 
HETATM   16  C6  UNL     1       5.478   0.744  -0.680  1.00  0.00     0.042 A 
HETATM   17  N2  UNL     1       7.311   1.620   0.789  1.00  0.00    -0.326 N 
HETATM   18  C7  UNL     1       4.101   0.477  -0.840  1.00  0.00     0.156 A 
HETATM   19  C8  UNL     1       6.417   0.413  -1.792  1.00  0.00    -0.014 A 
HETATM   20  F1  UNL     1       3.656  -0.181  -1.943  1.00  0.00    -0.203 F 
HETATM   21  C9  UNL     1       6.090   0.791  -3.109  1.00  0.00     0.013 A 
HETATM   22  C13 UNL     1       7.633  -0.275  -1.562  1.00  0.00    -0.038 A 
HETATM   23  C10 UNL     1       6.934   0.475  -4.175  1.00  0.00     0.001 A 
HETATM   24  C11 UNL     1       8.124  -0.214  -3.944  1.00  0.00     0.001 A 
HETATM   25  C12 UNL     1       8.477  -0.580  -2.644  1.00  0.00     0.008 A 
HETATM   26  C14 UNL     1       8.065  -0.617  -0.167  1.00  0.00     0.142 C 
HETATM   27  C15 UNL     1       8.348   0.656   0.562  1.00  0.00     0.226 C 
HETATM   28  O2  UNL     1       9.518   0.896   0.964  1.00  0.00    -0.273 OA
HETATM   29  H10 UNL     1       7.554   2.458   1.364  1.00  0.00     0.169 HD
ENDBRANCH  10  12
ENDBRANCH   1   8
BRANCH   3  30
HETATM   30  C39 UNL     1      -3.876  -0.449   2.211  1.00  0.00    -0.014 A 
HETATM   31  C34 UNL     1      -4.955   0.431   1.963  1.00  0.00    -0.014 A 
HETATM   32  C35 UNL     1      -5.929   0.627   2.955  1.00  0.00     0.013 A 
HETATM   33  C36 UNL     1      -5.842  -0.047   4.174  1.00  0.00     0.001 A 
HETATM   34  C37 UNL     1      -4.777  -0.914   4.420  1.00  0.00     0.001 A 
HETATM   35  C38 UNL     1      -3.795  -1.110   3.447  1.00  0.00     0.013 A 
BRANCH  31  36
HETATM   36  C33 UNL     1      -5.065   1.179   0.689  1.00  0.00    -0.014 A 
HETATM   37  C28 UNL     1      -5.322   0.519  -0.534  1.00  0.00    -0.014 A 
HETATM   38  C29 UNL     1      -5.459   1.273  -1.711  1.00  0.00     0.013 A 
HETATM   39  C30 UNL     1      -5.331   2.663  -1.680  1.00  0.00     0.001 A 
HETATM   40  C31 UNL     1      -5.077   3.315  -0.473  1.00  0.00     0.001 A 
HETATM   41  C32 UNL     1      -4.949   2.579   0.708  1.00  0.00     0.013 A 
BRANCH  37  42
HETATM   42  C27 UNL     1      -5.491  -0.951  -0.599  1.00  0.00    -0.014 A 
HETATM   43  C22 UNL     1      -4.410  -1.828  -0.350  1.00  0.00    -0.014 A 
HETATM   44  C23 UNL     1      -4.606  -3.215  -0.463  1.00  0.00     0.013 A 
HETATM   45  C24 UNL     1      -5.859  -3.726  -0.806  1.00  0.00     0.001 A 
HETATM   46  C25 UNL     1      -6.926  -2.860  -1.049  1.00  0.00     0.001 A 
HETATM   47  C26 UNL     1      -6.743  -1.479  -0.952  1.00  0.00     0.013 A 
ENDBRANCH  37  42
ENDBRANCH  31  36
ENDBRANCH   3  30
TORSDOF 6
