REMARK  3 active torsions:
REMARK  status: ('A' for Active; 'I' for Inactive)
REMARK    1  A    between atoms: C5_6  and  C6_7 
REMARK       I    between atoms: C6_7  and  N2_9 
REMARK    2  A    between atoms: N2_9  and  C7_10 
REMARK       I    between atoms: N3_17  and  C14_18 
REMARK    3  A    between atoms: C14_18  and  C15_20 
ROOT
HETATM    1  C7  UNL     1      -0.799  -0.656   1.138  1.00  0.00     0.102 C 
HETATM    2  C8  UNL     1      -1.249  -2.150   1.241  1.00  0.00     0.027 C 
HETATM    3  C9  UNL     1      -0.286  -3.146   1.939  1.00  0.00     0.002 C 
HETATM    4  C10 UNL     1       0.569  -3.986   0.959  1.00  0.00     0.007 C 
HETATM    5  C11 UNL     1       1.627  -3.091   0.327  1.00  0.00     0.010 A 
HETATM    6  C12 UNL     1       2.137  -3.170  -1.102  1.00  0.00     0.032 A 
HETATM    7  C13 UNL     1       0.955  -2.276  -0.775  1.00  0.00     0.091 A 
HETATM    8  N3  UNL     1       1.141  -0.855  -0.507  1.00  0.00    -0.345 N 
HETATM    9  C14 UNL     1       1.656  -0.000  -1.545  1.00  0.00     0.224 C 
HETATM   10  O2  UNL     1       1.606  -0.376  -2.748  1.00  0.00    -0.273 OA
HETATM   11  C19 UNL     1       0.685  -0.330   0.801  1.00  0.00     0.151 C 
ENDROOT
BRANCH   1  12
HETATM   12  N2  UNL     1      -1.663   0.035   0.178  1.00  0.00    -0.351 N 
HETATM   13  C6  UNL     1      -2.851   0.738   0.566  1.00  0.00     0.254 C 
HETATM   14  O1  UNL     1      -3.342   0.561   1.714  1.00  0.00    -0.268 OA
HETATM   15  H7  UNL     1      -1.489  -0.123  -0.840  1.00  0.00     0.163 HD
BRANCH  13  16
HETATM   16  C5  UNL     1      -3.536   1.643  -0.377  1.00  0.00     0.055 A 
HETATM   17  C2  UNL     1      -2.990   2.376  -1.424  1.00  0.00     0.021 A 
HETATM   18  C1  UNL     1      -1.551   2.433  -1.834  1.00  0.00     0.069 C 
HETATM   19  N1  UNL     1      -3.957   3.086  -2.036  1.00  0.00    -0.369 N 
HETATM   20  C3  UNL     1      -5.107   2.835  -1.384  1.00  0.00     0.089 A 
HETATM   21  H4  UNL     1      -3.840   3.727  -2.852  1.00  0.00     0.165 HD
HETATM   22  C4  UNL     1      -4.884   1.954  -0.346  1.00  0.00     0.036 A 
ENDBRANCH  13  16
ENDBRANCH   1  12
BRANCH   9  23
HETATM   23  C15 UNL     1       2.248   1.344  -1.232  1.00  0.00     0.082 A 
HETATM   24  C16 UNL     1       3.663   1.552  -1.764  1.00  0.00     0.019 A 
HETATM   25  C17 UNL     1       3.438   1.300  -0.281  1.00  0.00    -0.005 A 
HETATM   26  C18 UNL     1       3.589   2.526   0.619  1.00  0.00     0.011 C 
ENDBRANCH   9  23
TORSDOF 3
