REMARK  3 active torsions:
REMARK  status: ('A' for Active; 'I' for Inactive)
REMARK    1  A    between atoms: C1_2  and  C2_3 
REMARK       I    between atoms: C1_2  and  N1_10 
REMARK       I    between atoms: N1_10  and  C8_11 
REMARK    2  A    between atoms: C8_11  and  C9_13 
REMARK    3  A    between atoms: C12_16  and  C13_17 
ROOT
HETATM    1  C9  UNL     1       2.534  -0.837  -1.377  1.00  0.00     0.032 A 
HETATM    2  C10 UNL     1       1.493  -0.867  -2.320  1.00  0.00     0.018 A 
HETATM    3  C11 UNL     1       0.182  -0.563  -1.943  1.00  0.00     0.013 A 
HETATM    4  C12 UNL     1      -0.120  -0.229  -0.612  1.00  0.00    -0.026 A 
HETATM    5  C28 UNL     1       0.919  -0.210   0.334  1.00  0.00     0.013 A 
HETATM    6  C29 UNL     1       2.231  -0.514  -0.042  1.00  0.00     0.018 A 
ENDROOT
BRANCH   4   7
HETATM    7  C13 UNL     1      -1.513   0.094  -0.210  1.00  0.00    -0.025 A 
HETATM    8  C14 UNL     1      -1.771   1.146   0.681  1.00  0.00     0.013 A 
HETATM    9  C15 UNL     1      -3.079   1.446   1.064  1.00  0.00     0.014 A 
HETATM   10  C16 UNL     1      -4.164   0.705   0.563  1.00  0.00    -0.019 A 
HETATM   11  C17 UNL     1      -3.913  -0.349  -0.342  1.00  0.00    -0.046 A 
HETATM   12  C27 UNL     1      -5.548   1.046   0.996  1.00  0.00    -0.011 A 
HETATM   13  C18 UNL     1      -2.592  -0.652  -0.713  1.00  0.00     0.020 A 
HETATM   14  C19 UNL     1      -5.046  -1.185  -0.878  1.00  0.00     0.047 C 
HETATM   15  C20 UNL     1      -5.584  -2.113   0.212  1.00  0.00     0.088 C 
HETATM   16  C21 UNL     1      -6.142  -1.393   1.415  1.00  0.00     0.160 C 
HETATM   17  O3  UNL     1      -6.420  -2.076   2.438  1.00  0.00    -0.292 OA
HETATM   18  C22 UNL     1      -6.475   0.052   1.410  1.00  0.00     0.021 A 
HETATM   19  C23 UNL     1      -7.743   0.442   1.875  1.00  0.00     0.016 A 
HETATM   20  C24 UNL     1      -8.108   1.789   1.901  1.00  0.00     0.001 A 
HETATM   21  C25 UNL     1      -7.211   2.764   1.473  1.00  0.00     0.001 A 
HETATM   22  C26 UNL     1      -5.940   2.398   1.027  1.00  0.00     0.013 A 
ENDBRANCH   4   7
BRANCH   1  23
HETATM   23  C8  UNL     1       3.920  -1.167  -1.788  1.00  0.00     0.258 C 
HETATM   24  N1  UNL     1       5.049  -0.682  -1.040  1.00  0.00    -0.289 N 
HETATM   25  C1  UNL     1       6.380  -1.206  -1.191  1.00  0.00     0.260 C 
HETATM   26  H5  UNL     1       4.902   0.098  -0.363  1.00  0.00     0.172 HD
HETATM   27  O1  UNL     1       6.570  -2.272  -1.836  1.00  0.00    -0.267 OA
HETATM   28  O2  UNL     1       4.106  -1.857  -2.828  1.00  0.00    -0.267 OA
BRANCH  25  29
HETATM   29  C2  UNL     1       7.535  -0.497  -0.589  1.00  0.00     0.054 A 
HETATM   30  C3  UNL     1       7.556   0.911  -0.598  1.00  0.00     0.019 A 
HETATM   31  C4  UNL     1       8.637   1.610  -0.056  1.00  0.00     0.001 A 
HETATM   32  C5  UNL     1       9.711   0.916   0.501  1.00  0.00     0.002 A 
HETATM   33  C6  UNL     1       9.706  -0.480   0.521  1.00  0.00     0.025 A 
HETATM   34  C7  UNL     1       8.628  -1.194  -0.020  1.00  0.00     0.049 A 
HETATM   35 CL1  UNL     1       8.667  -2.951   0.096  1.00  0.00    -0.083 Cl
ENDBRANCH  25  29
ENDBRANCH   1  23
TORSDOF 3
