REMARK  2 active torsions:
REMARK  status: ('A' for Active; 'I' for Inactive)
REMARK    1  A    between atoms: N1_12  and  C12_13 
REMARK    2  A    between atoms: C19_21  and  C20_22 
ROOT
HETATM    1  C12 UNL     1      -0.511  -0.529  -0.816  1.00  0.00     0.048 C 
HETATM    2  C13 UNL     1       0.082  -1.257  -1.867  1.00  0.00     0.031 C 
HETATM    3  C14 UNL     1      -0.598  -1.475  -3.063  1.00  0.00     0.005 C 
HETATM    4  C15 UNL     1      -1.868  -0.938  -3.251  1.00  0.00     0.032 C 
HETATM    5  C16 UNL     1      -2.509  -0.275  -2.203  1.00  0.00     0.069 C 
HETATM    6  N2  UNL     1      -3.735   0.269  -2.416  1.00  0.00    -0.260 NA
HETATM    7  C17 UNL     1      -4.419   0.898  -1.430  1.00  0.00     0.118 C 
HETATM    8  C18 UNL     1      -3.918   0.908  -0.132  1.00  0.00     0.027 C 
HETATM    9  C19 UNL     1      -2.695   0.275   0.155  1.00  0.00    -0.038 C 
HETATM   10  C23 UNL     1      -1.888  -0.170  -0.929  1.00  0.00     0.026 C 
ENDROOT
BRANCH   1  11
HETATM   11  N1  UNL     1       0.365   0.069   0.174  1.00  0.00    -0.346 N 
HETATM   12  C4  UNL     1       1.438  -0.719   0.736  1.00  0.00     0.041 A 
HETATM   13  C3  UNL     1       1.128  -1.687   1.700  1.00  0.00     0.030 A 
HETATM   14  C5  UNL     1       2.788  -0.569   0.320  1.00  0.00    -0.031 A 
HETATM   15  C2  UNL     1       2.127  -2.468   2.282  1.00  0.00     0.002 A 
HETATM   16  C1  UNL     1       3.455  -2.295   1.903  1.00  0.00     0.001 A 
HETATM   17  C6  UNL     1       3.786  -1.352   0.930  1.00  0.00     0.009 A 
HETATM   18  C7  UNL     1       3.203   0.422  -0.743  1.00  0.00     0.041 C 
HETATM   19  C8  UNL     1       3.307   1.845  -0.167  1.00  0.00     0.005 C 
HETATM   20  C9  UNL     1       2.276   2.830  -0.744  1.00  0.00     0.002 C 
HETATM   21  C10 UNL     1       0.829   2.311  -0.839  1.00  0.00     0.020 C 
HETATM   22  C11 UNL     1       0.345   1.530   0.399  1.00  0.00     0.129 C 
ENDBRANCH   1  11
BRANCH   9  23
HETATM   23  C20 UNL     1      -2.364  -0.059   1.601  1.00  0.00     0.019 A 
HETATM   24  C21 UNL     1      -3.544  -0.466   2.487  1.00  0.00     0.010 A 
HETATM   25  C22 UNL     1      -2.600  -1.524   1.961  1.00  0.00     0.010 A 
ENDBRANCH   9  23
TORSDOF 2
