REMARK  4 active torsions:
REMARK  status: ('A' for Active; 'I' for Inactive)
REMARK       I    between atoms: C1_2  and  N1_3 
REMARK    1  A    between atoms: C1_2  and  C30_36 
REMARK       I    between atoms: N1_3  and  C2_4 
REMARK    2  A    between atoms: C2_4  and  C3_6 
REMARK    3  A    between atoms: C17_23  and  C18_24 
REMARK    4  A    between atoms: C23_29  and  C24_30 
ROOT
HETATM    1  C3  UNL     1      -1.794  -0.433  -0.334  1.00  0.00     0.045 C 
HETATM    2  C4  UNL     1      -1.222  -1.631  -0.527  1.00  0.00     0.033 C 
HETATM    3  C5  UNL     1      -1.772  -2.904  -0.057  1.00  0.00     0.021 A 
HETATM    4  C6  UNL     1      -2.982  -3.381  -0.567  1.00  0.00     0.046 A 
HETATM    5  C7  UNL     1      -3.391  -4.694  -0.249  1.00  0.00     0.256 A 
HETATM    6  O3  UNL     1      -4.470  -5.161  -0.717  1.00  0.00    -0.267 OA
HETATM    7  N2  UNL     1      -2.618  -5.470   0.563  1.00  0.00    -0.330 N 
HETATM    8  C8  UNL     1      -1.443  -5.013   1.074  1.00  0.00     0.134 A 
HETATM    9  C9  UNL     1      -0.986  -3.734   0.756  1.00  0.00     0.143 A 
HETATM   10  F1  UNL     1       0.215  -3.314   1.216  1.00  0.00    -0.204 F 
HETATM   11  C10 UNL     1      -3.808  -2.541  -1.465  1.00  0.00     0.030 C 
HETATM   12  C11 UNL     1      -4.590  -1.572  -0.958  1.00  0.00    -0.024 C 
HETATM   13  C12 UNL     1      -5.893  -1.477  -1.490  1.00  0.00     0.012 C 
HETATM   14  C13 UNL     1      -6.932  -0.966  -0.706  1.00  0.00     0.001 C 
HETATM   15  C14 UNL     1      -6.691  -0.594   0.612  1.00  0.00     0.001 C 
HETATM   16  C15 UNL     1      -5.379  -0.522   1.084  1.00  0.00     0.013 C 
HETATM   17  C16 UNL     1      -4.279  -0.828   0.234  1.00  0.00    -0.014 C 
HETATM   18  C17 UNL     1      -3.055  -0.230   0.474  1.00  0.00     0.002 C 
HETATM   19  H3  UNL     1      -2.933  -6.439   0.799  1.00  0.00     0.168 HD
ENDROOT
BRANCH   1  20
HETATM   20  C2  UNL     1      -0.922   0.746  -0.611  1.00  0.00     0.259 C 
HETATM   21  N1  UNL     1       0.428   0.764  -0.117  1.00  0.00    -0.289 N 
HETATM   22  C1  UNL     1       1.303   1.901  -0.246  1.00  0.00     0.261 C 
HETATM   23  H1  UNL     1       0.748  -0.080   0.397  1.00  0.00     0.172 HD
HETATM   24  O1  UNL     1       0.794   3.057  -0.322  1.00  0.00    -0.267 OA
HETATM   25  O2  UNL     1      -1.358   1.711  -1.291  1.00  0.00    -0.267 OA
BRANCH  22  26
HETATM   26  C30 UNL     1       2.790   1.751  -0.370  1.00  0.00     0.071 C 
HETATM   27  C31 UNL     1       3.524   2.793  -0.955  1.00  0.00     0.021 C 
HETATM   28  C32 UNL     1       4.903   2.699  -1.104  1.00  0.00     0.014 C 
HETATM   29  C33 UNL     1       5.608   1.526  -0.736  1.00  0.00    -0.011 C 
HETATM   30  C34 UNL     1       4.861   0.403  -0.301  1.00  0.00     0.026 C 
HETATM   31  C47 UNL     1       7.032   1.450  -0.777  1.00  0.00    -0.014 A 
HETATM   32  C35 UNL     1       3.487   0.587   0.025  1.00  0.00     0.144 C 
HETATM   33  C36 UNL     1       5.494  -0.869  -0.206  1.00  0.00    -0.011 A 
HETATM   34  F2  UNL     1       2.906  -0.265   0.904  1.00  0.00    -0.204 F 
HETATM   35  C37 UNL     1       4.733  -2.063  -0.104  1.00  0.00     0.013 A 
HETATM   36  C41 UNL     1       6.916  -0.968  -0.305  1.00  0.00    -0.014 A 
HETATM   37  C38 UNL     1       5.348  -3.303   0.008  1.00  0.00     0.001 A 
HETATM   38  C39 UNL     1       6.732  -3.397  -0.011  1.00  0.00     0.001 A 
HETATM   39  C40 UNL     1       7.510  -2.254  -0.175  1.00  0.00     0.013 A 
HETATM   40  C42 UNL     1       7.692   0.205  -0.541  1.00  0.00    -0.014 A 
HETATM   41  C43 UNL     1       9.117   0.179  -0.569  1.00  0.00     0.013 A 
HETATM   42  C44 UNL     1       9.855   1.326  -0.838  1.00  0.00     0.001 A 
HETATM   43  C45 UNL     1       9.212   2.537  -1.041  1.00  0.00     0.001 A 
HETATM   44  C46 UNL     1       7.829   2.605  -0.989  1.00  0.00     0.013 A 
ENDBRANCH  22  26
ENDBRANCH   1  20
BRANCH  18  45
HETATM   45  C18 UNL     1      -2.934   0.905   1.460  1.00  0.00    -0.013 A 
HETATM   46  C19 UNL     1      -1.948   0.797   2.463  1.00  0.00     0.013 A 
HETATM   47  C20 UNL     1      -1.684   1.861   3.327  1.00  0.00     0.001 A 
HETATM   48  C21 UNL     1      -2.401   3.049   3.214  1.00  0.00     0.001 A 
HETATM   49  C22 UNL     1      -3.376   3.182   2.232  1.00  0.00     0.013 A 
HETATM   50  C23 UNL     1      -3.673   2.128   1.342  1.00  0.00    -0.015 A 
BRANCH  50  51
HETATM   51  C24 UNL     1      -4.784   2.352   0.360  1.00  0.00    -0.025 A 
HETATM   52  C25 UNL     1      -6.029   2.842   0.813  1.00  0.00     0.012 A 
HETATM   53  C26 UNL     1      -7.099   3.002  -0.074  1.00  0.00     0.001 A 
HETATM   54  C27 UNL     1      -6.937   2.701  -1.426  1.00  0.00     0.000 A 
HETATM   55  C28 UNL     1      -5.704   2.234  -1.897  1.00  0.00     0.001 A 
HETATM   56  C29 UNL     1      -4.637   2.063  -1.010  1.00  0.00     0.012 A 
ENDBRANCH  50  51
ENDBRANCH  18  45
TORSDOF 4
