REMARK  3 active torsions:
REMARK  status: ('A' for Active; 'I' for Inactive)
REMARK    1  A    between atoms: C4_4  and  C5_5 
REMARK       I    between atoms: C5_5  and  N1_7 
REMARK    2  A    between atoms: C19_24  and  C20_25 
REMARK    3  A    between atoms: C20_25  and  O4_27 
ROOT
HETATM    1  C5  UNL     1       0.444  -1.028   1.323  1.00  0.00     0.260 C 
HETATM    2  O1  UNL     1       0.694  -1.780   2.304  1.00  0.00    -0.267 OA
HETATM    3  N1  UNL     1      -0.929  -0.707   0.987  1.00  0.00    -0.308 N 
HETATM    4  C6  UNL     1      -2.029  -1.425   1.650  1.00  0.00     0.144 C 
HETATM    5  C7  UNL     1      -3.133  -1.779   0.647  1.00  0.00    -0.002 A 
HETATM    6  C8  UNL     1      -4.239  -2.687   1.171  1.00  0.00     0.014 A 
HETATM    7  C9  UNL     1      -4.525  -1.214   0.909  1.00  0.00     0.014 A 
HETATM    8  C10 UNL     1      -2.736  -1.934  -0.824  1.00  0.00     0.187 C 
HETATM    9  O2  UNL     1      -2.633  -0.659  -1.452  1.00  0.00    -0.348 OA
HETATM   10  C11 UNL     1      -2.010   0.489  -0.930  1.00  0.00     0.098 A 
HETATM   11  C12 UNL     1      -2.196   1.683  -1.639  1.00  0.00     0.039 A 
HETATM   12  C13 UNL     1      -1.671   2.886  -1.168  1.00  0.00     0.006 A 
HETATM   13  C14 UNL     1      -0.962   2.915   0.030  1.00  0.00     0.045 A 
HETATM   14  C15 UNL     1      -0.750   1.737   0.747  1.00  0.00     0.146 A 
HETATM   15  F1  UNL     1      -0.098   1.802   1.935  1.00  0.00    -0.204 F 
HETATM   16  C16 UNL     1      -1.232   0.504   0.262  1.00  0.00     0.110 A 
ENDROOT
BRANCH   1  17
HETATM   17  C4  UNL     1       1.586  -0.450   0.578  1.00  0.00     0.057 A 
HETATM   18  C3  UNL     1       2.496   0.361   1.266  1.00  0.00     0.028 A 
HETATM   19  C2  UNL     1       3.572   0.970   0.601  1.00  0.00    -0.025 A 
HETATM   20  C1  UNL     1       4.505   1.850   1.391  1.00  0.00     0.051 C 
HETATM   21  C19 UNL     1       3.728   0.733  -0.789  1.00  0.00     0.136 A 
HETATM   22  N2  UNL     1       2.851  -0.096  -1.418  1.00  0.00    -0.245 NA
HETATM   23  C17 UNL     1       1.810  -0.702  -0.789  1.00  0.00     0.047 A 
HETATM   24  C18 UNL     1       0.945  -1.630  -1.586  1.00  0.00     0.071 C 
BRANCH  21  25
HETATM   25  C20 UNL     1       4.804   1.327  -1.619  1.00  0.00     0.196 C 
HETATM   26  O3  UNL     1       5.632   2.149  -1.145  1.00  0.00    -0.645 OA
BRANCH  25  27
HETATM   27  O4  UNL     1       4.896   0.973  -2.963  1.00  0.00    -0.772 OA
HETATM   28  H19 UNL     1       5.618   1.365  -3.556  1.00  0.00     0.167 HD
ENDBRANCH  25  27
ENDBRANCH  21  25
ENDBRANCH   1  17
TORSDOF 3
