REMARK  4 active torsions:
REMARK  status: ('A' for Active; 'I' for Inactive)
REMARK       I    between atoms: N1_5  and  C5_6 
REMARK    1  A    between atoms: C5_6  and  C6_8 
REMARK    2  A    between atoms: C11_13  and  C12_14 
REMARK    3  A    between atoms: C12_14  and  N2_15 
REMARK    4  A    between atoms: N2_15  and  C13_16 
ROOT
HETATM    1  C1  UNL     1      -2.124  -1.306  -2.712  1.00  0.00     0.023 C 
HETATM    2  C2  UNL     1      -1.908  -0.807  -1.268  1.00  0.00     0.012 C 
HETATM    3  C3  UNL     1      -2.107  -2.006  -0.301  1.00  0.00     0.023 C 
HETATM    4  C4  UNL     1      -0.418  -0.358  -1.134  1.00  0.00     0.141 C 
HETATM    5  N1  UNL     1      -0.230   0.597  -0.035  1.00  0.00    -0.347 N 
HETATM    6  C5  UNL     1       0.187   0.163   1.282  1.00  0.00     0.254 C 
HETATM    7  O1  UNL     1      -0.117   0.850   2.296  1.00  0.00    -0.267 OA
HETATM    8  C16 UNL     1      -0.428   2.026  -0.304  1.00  0.00     0.131 C 
HETATM    9  C17 UNL     1      -1.484   2.259  -1.393  1.00  0.00     0.060 C 
HETATM   10  C18 UNL     1      -2.802   1.623  -1.011  1.00  0.00    -0.032 C 
HETATM   11  C19 UNL     1      -3.901   2.597  -0.747  1.00  0.00     0.026 C 
HETATM   12  C20 UNL     1      -4.789   2.519   0.254  1.00  0.00     0.093 C 
HETATM   13  N3  UNL     1      -4.918   1.380   1.110  1.00  0.00    -0.319 N 
HETATM   14  C21 UNL     1      -4.946   0.061   0.569  1.00  0.00     0.324 C 
HETATM   15  O2  UNL     1      -5.557  -0.853   1.182  1.00  0.00    -0.247 OA
HETATM   16  N4  UNL     1      -4.311  -0.227  -0.676  1.00  0.00    -0.311 N 
HETATM   17  C22 UNL     1      -2.988   0.269  -0.952  1.00  0.00     0.029 C 
HETATM   18  H27 UNL     1      -5.337   1.532   2.054  1.00  0.00     0.170 HD
HETATM   19  H28 UNL     1      -4.657  -1.058  -1.204  1.00  0.00     0.170 HD
ENDROOT
BRANCH   6  20
HETATM   20  C6  UNL     1       0.959  -1.082   1.485  1.00  0.00     0.040 A 
HETATM   21  C7  UNL     1       0.419  -2.069   2.326  1.00  0.00     0.017 A 
HETATM   22  C8  UNL     1       1.075  -3.286   2.507  1.00  0.00     0.001 A 
HETATM   23  C9  UNL     1       2.281  -3.532   1.854  1.00  0.00     0.001 A 
HETATM   24  C10 UNL     1       2.846  -2.552   1.036  1.00  0.00     0.010 A 
HETATM   25  C11 UNL     1       2.217  -1.306   0.864  1.00  0.00    -0.015 A 
BRANCH  25  26
HETATM   26  C12 UNL     1       2.894  -0.261  -0.000  1.00  0.00     0.309 C 
BRANCH  26  27
HETATM   27  N2  UNL     1       4.310  -0.135   0.364  1.00  0.00     0.092 N 
HETATM   28  H15 UNL     1       4.357   0.211   1.352  1.00  0.00     0.316 HD
BRANCH  27  29
HETATM   29  C13 UNL     1       4.970   0.802  -0.562  1.00  0.00     0.221 A 
HETATM   30  C14 UNL     1       5.076   2.243  -0.080  1.00  0.00     0.037 A 
HETATM   31  C15 UNL     1       6.297   1.331  -0.042  1.00  0.00     0.037 A 
ENDBRANCH  27  29
ENDBRANCH  26  27
ENDBRANCH  25  26
ENDBRANCH   6  20
TORSDOF 4
