REMARK  2 active torsions:
REMARK  status: ('A' for Active; 'I' for Inactive)
REMARK       I    between atoms: C1_2  and  N1_3 
REMARK    1  A    between atoms: C1_2  and  C21_24 
REMARK    2  A    between atoms: N1_3  and  C2_4 
ROOT
HETATM    1  C2  UNL     1      -0.741   1.281   0.463  1.00  0.00     0.035 A 
HETATM    2  C3  UNL     1      -1.553   2.151   1.195  1.00  0.00     0.030 A 
HETATM    3  C4  UNL     1      -2.886   2.347   0.835  1.00  0.00     0.015 A 
HETATM    4  C5  UNL     1      -3.436   1.687  -0.276  1.00  0.00    -0.017 A 
HETATM    5  C6  UNL     1      -2.615   0.818  -1.044  1.00  0.00    -0.021 A 
HETATM    6  C7  UNL     1      -1.270   0.642  -0.670  1.00  0.00     0.039 A 
HETATM    7  C8  UNL     1      -3.103   0.126  -2.305  1.00  0.00     0.215 C 
HETATM    8  O2  UNL     1      -4.342  -0.558  -2.128  1.00  0.00    -0.346 OA
HETATM    9  C9  UNL     1      -4.711  -1.168  -0.928  1.00  0.00     0.080 A 
HETATM   10  C10 UNL     1      -4.334  -2.486  -0.648  1.00  0.00     0.037 A 
HETATM   11  C11 UNL     1      -4.746  -3.090   0.544  1.00  0.00     0.003 A 
HETATM   12  C12 UNL     1      -5.537  -2.378   1.453  1.00  0.00     0.001 A 
HETATM   13  C13 UNL     1      -5.911  -1.059   1.176  1.00  0.00     0.015 A 
HETATM   14  C14 UNL     1      -5.488  -0.446  -0.011  1.00  0.00     0.008 A 
HETATM   15  C15 UNL     1      -5.859   0.950  -0.329  1.00  0.00    -0.012 A 
HETATM   16  C16 UNL     1      -7.216   1.283  -0.464  1.00  0.00     0.013 A 
HETATM   17  C17 UNL     1      -7.593   2.571  -0.852  1.00  0.00     0.001 A 
HETATM   18  C18 UNL     1      -6.619   3.537  -1.108  1.00  0.00     0.001 A 
HETATM   19  C19 UNL     1      -5.265   3.225  -0.962  1.00  0.00     0.013 A 
HETATM   20  C20 UNL     1      -4.869   1.933  -0.578  1.00  0.00    -0.014 A 
ENDROOT
BRANCH   1  21
HETATM   21  N1  UNL     1       0.638   1.119   0.842  1.00  0.00    -0.323 N 
HETATM   22  C1  UNL     1       1.370  -0.111   0.687  1.00  0.00     0.256 C 
HETATM   23  O1  UNL     1       0.757  -1.179   0.410  1.00  0.00    -0.267 OA
HETATM   24  H1  UNL     1       1.106   1.937   1.287  1.00  0.00     0.169 HD
BRANCH  22  25
HETATM   25  C21 UNL     1       2.844  -0.150   0.838  1.00  0.00     0.034 A 
HETATM   26  C22 UNL     1       3.597  -1.047   0.069  1.00  0.00     0.049 A 
HETATM   27  C23 UNL     1       4.998  -1.092   0.154  1.00  0.00     0.062 A 
HETATM   28  C24 UNL     1       5.680  -0.196   1.053  1.00  0.00     0.062 A 
HETATM   29  N3  UNL     1       5.679  -2.042  -0.691  1.00  0.00    -0.351 N 
HETATM   30  C25 UNL     1       4.895   0.659   1.847  1.00  0.00     0.033 A 
HETATM   31  N2  UNL     1       7.127  -0.090   1.221  1.00  0.00    -0.321 N 
HETATM   32  C26 UNL     1       3.505   0.689   1.742  1.00  0.00     0.019 A 
HETATM   33  C27 UNL     1       8.163  -0.454   0.284  1.00  0.00     0.253 C 
HETATM   34  H18 UNL     1       7.462   0.475   2.035  1.00  0.00     0.169 HD
HETATM   35  O3  UNL     1       9.275   0.138   0.318  1.00  0.00    -0.268 OA
HETATM   36  C28 UNL     1       7.937  -1.506  -0.696  1.00  0.00     0.028 C 
HETATM   37  C29 UNL     1       7.905  -1.148  -1.998  1.00  0.00     0.016 C 
HETATM   38  C32 UNL     1       6.969  -2.553  -0.263  1.00  0.00     0.172 C 
HETATM   39  C30 UNL     1       6.684  -1.470  -2.788  1.00  0.00     0.018 C 
HETATM   40  C31 UNL     1       5.581  -1.861  -2.122  1.00  0.00     0.091 C 
ENDBRANCH  22  25
ENDBRANCH   1  21
TORSDOF 2
