REMARK  2 active torsions:
REMARK  status: ('A' for Active; 'I' for Inactive)
REMARK    1  A    between atoms: C1_2  and  C2_3 
REMARK    2  A    between atoms: C1_2  and  C18_21 
ROOT
HETATM    1  C2  UNL     1       2.243   1.510  -0.806  1.00  0.00     0.017 A 
HETATM    2  C3  UNL     1       1.586   2.747  -0.800  1.00  0.00     0.016 A 
HETATM    3  C4  UNL     1       0.193   2.808  -0.817  1.00  0.00     0.010 A 
HETATM    4  C5  UNL     1      -0.578   1.633  -0.845  1.00  0.00    -0.031 A 
HETATM    5  C6  UNL     1       0.075   0.378  -0.840  1.00  0.00     0.042 A 
HETATM    6  C7  UNL     1       1.479   0.333  -0.846  1.00  0.00     0.045 A 
HETATM    7  N1  UNL     1      -0.649  -0.864  -0.845  1.00  0.00    -0.325 N 
HETATM    8  C8  UNL     1      -1.647  -1.169   0.136  1.00  0.00     0.240 C 
HETATM    9  O2  UNL     1      -1.516  -2.212   0.834  1.00  0.00    -0.272 OA
HETATM   10  C9  UNL     1      -2.879  -0.318   0.282  1.00  0.00     0.097 A 
HETATM   11  C10 UNL     1      -2.755   1.207   0.334  1.00  0.00     0.034 C 
HETATM   12  C11 UNL     1      -2.080   1.746  -0.930  1.00  0.00     0.043 C 
HETATM   13  C12 UNL     1      -3.987  -0.804  -0.432  1.00  0.00    -0.028 A 
HETATM   14  C13 UNL     1      -5.008  -1.244  -1.213  1.00  0.00     0.009 A 
HETATM   15  C14 UNL     1      -6.062  -1.795  -0.404  1.00  0.00     0.001 A 
HETATM   16  C15 UNL     1      -6.010  -1.859   1.060  1.00  0.00     0.001 A 
HETATM   17  C16 UNL     1      -4.900  -1.377   1.839  1.00  0.00     0.009 A 
HETATM   18  C17 UNL     1      -3.935  -0.868   1.029  1.00  0.00    -0.028 A 
HETATM   19  H4  UNL     1      -0.161  -1.689  -1.262  1.00  0.00     0.169 HD
ENDROOT
BRANCH   1  20
HETATM   20  C1  UNL     1       3.726   1.459  -0.810  1.00  0.00     0.192 C 
HETATM   21  O1  UNL     1       4.364   2.372  -1.401  1.00  0.00    -0.287 OA
BRANCH  20  22
HETATM   22  C18 UNL     1       4.484   0.372  -0.143  1.00  0.00     0.018 A 
HETATM   23  C19 UNL     1       4.000  -0.235   1.031  1.00  0.00     0.015 A 
HETATM   24  C20 UNL     1       4.733  -1.247   1.658  1.00  0.00     0.004 A 
HETATM   25  C21 UNL     1       5.959  -1.656   1.128  1.00  0.00     0.042 A 
HETATM   26  C22 UNL     1       6.457  -1.049  -0.028  1.00  0.00     0.117 A 
HETATM   27  F1  UNL     1       7.650  -1.442  -0.538  1.00  0.00    -0.206 F 
HETATM   28  C23 UNL     1       5.727  -0.036  -0.659  1.00  0.00     0.057 A 
ENDBRANCH  20  22
ENDBRANCH   1  20
TORSDOF 2
