REMARK  3 active torsions:
REMARK  status: ('A' for Active; 'I' for Inactive)
REMARK    1  A    between atoms: C2_2  and  C3_3 
REMARK    2  A    between atoms: N1_9  and  C9_10 
REMARK    3  A    between atoms: C12_14  and  N3_15 
ROOT
HETATM    1  C9  UNL     1      -0.983  -0.466   1.044  1.00  0.00     0.155 A 
HETATM    2  C10 UNL     1      -0.702  -0.445   2.412  1.00  0.00     0.071 A 
HETATM    3  C11 UNL     1       0.626  -0.327   2.813  1.00  0.00     0.140 A 
HETATM    4  N2  UNL     1       1.611  -0.250   1.881  1.00  0.00    -0.075 NA
HETATM    5  C12 UNL     1       1.329  -0.294   0.549  1.00  0.00     0.731 A 
HETATM    6  N5  UNL     1       0.034  -0.406   0.146  1.00  0.00    -0.044 NA
ENDROOT
BRANCH   1   7
HETATM    7  N1  UNL     1      -2.331  -0.606   0.587  1.00  0.00    -0.294 N 
HETATM    8  C8  UNL     1      -3.226   0.356   0.214  1.00  0.00     0.059 A 
HETATM    9  C3  UNL     1      -3.085   1.767   0.172  1.00  0.00    -0.030 A 
HETATM   10  C7  UNL     1      -4.427  -0.237  -0.152  1.00  0.00     0.004 A 
HETATM   11  C4  UNL     1      -4.198   2.517  -0.277  1.00  0.00     0.009 A 
HETATM   12  C5  UNL     1      -5.404   1.889  -0.643  1.00  0.00     0.002 A 
HETATM   13  C6  UNL     1      -5.528   0.496  -0.581  1.00  0.00     0.014 A 
HETATM   14  C27 UNL     1      -4.268  -1.595  -0.002  1.00  0.00     0.004 A 
HETATM   15  C22 UNL     1      -2.983  -1.786   0.450  1.00  0.00     0.052 A 
HETATM   16  C26 UNL     1      -5.142  -2.659  -0.225  1.00  0.00     0.014 A 
HETATM   17  C23 UNL     1      -2.491  -3.070   0.707  1.00  0.00     0.031 A 
HETATM   18  C24 UNL     1      -3.350  -4.163   0.491  1.00  0.00     0.002 A 
HETATM   19  C25 UNL     1      -4.668  -3.959   0.028  1.00  0.00     0.001 A 
BRANCH   9  20
HETATM   20  C2  UNL     1      -1.816   2.512   0.509  1.00  0.00     0.036 C 
HETATM   21  C1  UNL     1      -0.943   2.690  -0.729  1.00  0.00     0.010 C 
ENDBRANCH   9  20
ENDBRANCH   1   7
BRANCH   5  22
HETATM   22  N3  UNL     1       2.395  -0.208  -0.421  1.00  0.00    -0.177 N 
HETATM   23  C13 UNL     1       2.110  -0.103  -1.860  1.00  0.00     0.178 C 
HETATM   24  C14 UNL     1       2.976   0.976  -2.523  1.00  0.00     0.290 C 
HETATM   25  N4  UNL     1       3.200   2.111  -1.616  1.00  0.00     0.089 N 
HETATM   26  C15 UNL     1       4.441   1.999  -0.832  1.00  0.00     0.310 C 
HETATM   27  H15 UNL     1       2.381   2.268  -0.982  1.00  0.00     0.316 HD
HETATM   28  C16 UNL     1       4.735   0.634  -0.219  1.00  0.00    -0.003 A 
HETATM   29  C17 UNL     1       6.052   0.405   0.220  1.00  0.00     0.011 A 
HETATM   30  C21 UNL     1       3.758  -0.373   0.005  1.00  0.00     0.060 A 
HETATM   31  C18 UNL     1       6.405  -0.795   0.840  1.00  0.00     0.001 A 
HETATM   32  C19 UNL     1       5.446  -1.785   1.042  1.00  0.00     0.002 A 
HETATM   33  C20 UNL     1       4.132  -1.576   0.628  1.00  0.00     0.031 A 
ENDBRANCH   5  22
TORSDOF 3
