REMARK  4 active torsions:
REMARK  status: ('A' for Active; 'I' for Inactive)
REMARK    1  A    between atoms: C5_6  and  O1_7 
REMARK    2  A    between atoms: C6_8  and  C7_9 
REMARK       I    between atoms: C7_9  and  N2_11 
REMARK       I    between atoms: N3_15  and  C11_16 
REMARK    3  A    between atoms: C11_16  and  C12_18 
REMARK    4  A    between atoms: C15_22  and  C16_23 
ROOT
HETATM    1  C7  UNL     1      -2.719  -1.208   0.717  1.00  0.00     0.258 C 
HETATM    2  O2  UNL     1      -2.617  -2.208   1.477  1.00  0.00    -0.267 OA
HETATM    3  N2  UNL     1      -1.613  -0.831  -0.131  1.00  0.00    -0.346 N 
HETATM    4  C8  UNL     1      -0.586  -1.825  -0.476  1.00  0.00     0.127 C 
HETATM    5  C9  UNL     1       0.461  -1.987   0.642  1.00  0.00     0.040 C 
HETATM    6  C10 UNL     1       1.162  -0.686   1.099  1.00  0.00     0.128 C 
HETATM    7  N3  UNL     1       0.944   0.441   0.178  1.00  0.00    -0.345 N 
HETATM    8  C11 UNL     1       1.871   0.753  -0.887  1.00  0.00     0.271 C 
HETATM    9  O3  UNL     1       1.655   1.741  -1.640  1.00  0.00    -0.266 OA
HETATM   10  C19 UNL     1      -0.306   1.205   0.307  1.00  0.00     0.146 C 
HETATM   11  C20 UNL     1      -1.401   0.565  -0.542  1.00  0.00     0.146 C 
ENDROOT
BRANCH   1  12
HETATM   12  C6  UNL     1      -3.996  -0.460   0.705  1.00  0.00     0.090 A 
HETATM   13  C2  UNL     1      -4.752  -0.294  -0.482  1.00  0.00    -0.041 A 
HETATM   14  C1  UNL     1      -4.304  -0.867  -1.802  1.00  0.00     0.049 C 
HETATM   15  C3  UNL     1      -5.946   0.442  -0.432  1.00  0.00     0.027 A 
HETATM   16  C4  UNL     1      -6.389   0.962   0.784  1.00  0.00     0.120 A 
HETATM   17  N1  UNL     1      -5.662   0.769   1.914  1.00  0.00    -0.236 NA
HETATM   18  C5  UNL     1      -4.490   0.080   1.907  1.00  0.00     0.178 A 
BRANCH  18  19
HETATM   19  O1  UNL     1      -3.776  -0.068   3.093  1.00  0.00    -0.344 OA
HETATM   20  H6  UNL     1      -4.099   0.363   3.950  1.00  0.00     0.219 HD
ENDBRANCH  18  19
ENDBRANCH   1  12
BRANCH   8  21
HETATM   21  C12 UNL     1       3.105  -0.020  -1.099  1.00  0.00     0.107 A 
HETATM   22  N4  UNL     1       3.135  -1.312  -1.480  1.00  0.00    -0.361 N 
HETATM   23  C13 UNL     1       4.430  -1.646  -1.634  1.00  0.00     0.089 A 
HETATM   24  H13 UNL     1       2.317  -1.930  -1.669  1.00  0.00     0.165 HD
HETATM   25  C14 UNL     1       5.239  -0.559  -1.361  1.00  0.00     0.027 A 
HETATM   26  C15 UNL     1       4.393   0.477  -1.010  1.00  0.00    -0.020 A 
BRANCH  26  27
HETATM   27  C16 UNL     1       4.800   1.877  -0.653  1.00  0.00     0.021 A 
HETATM   28  C17 UNL     1       5.817   1.981   0.475  1.00  0.00     0.010 A 
HETATM   29  C18 UNL     1       4.361   2.323   0.735  1.00  0.00     0.010 A 
ENDBRANCH  26  27
ENDBRANCH   8  21
TORSDOF 4
