REMARK  3 active torsions:
REMARK  status: ('A' for Active; 'I' for Inactive)
REMARK    1  A    between atoms: C1_2  and  C2_3 
REMARK       I    between atoms: C1_2  and  N1_20 
REMARK    2  A    between atoms: C6_7  and  C7_8 
REMARK    3  A    between atoms: N1_20  and  C18_21 
ROOT
HETATM    1  C2  UNL     1      -0.372  -1.939  -1.228  1.00  0.00     0.033 A 
HETATM    2  C3  UNL     1      -0.732  -3.252  -1.577  1.00  0.00     0.017 A 
HETATM    3  C4  UNL     1      -2.062  -3.667  -1.493  1.00  0.00     0.002 A 
HETATM    4  C5  UNL     1      -3.049  -2.782  -1.055  1.00  0.00     0.012 A 
HETATM    5  C6  UNL     1      -2.713  -1.467  -0.690  1.00  0.00    -0.025 A 
HETATM    6  C17 UNL     1      -1.370  -1.055  -0.777  1.00  0.00     0.029 A 
ENDROOT
BRANCH   1   7
HETATM    7  C1  UNL     1       1.045  -1.507  -1.313  1.00  0.00     0.256 C 
HETATM    8  O1  UNL     1       1.957  -2.377  -1.367  1.00  0.00    -0.267 OA
HETATM    9  N1  UNL     1       1.386  -0.112  -1.384  1.00  0.00    -0.323 N 
HETATM   10  H11 UNL     1       0.687   0.543  -1.800  1.00  0.00     0.169 HD
BRANCH   9  11
HETATM   11  C18 UNL     1       2.688   0.408  -1.063  1.00  0.00     0.037 A 
HETATM   12  C19 UNL     1       3.144   1.561  -1.704  1.00  0.00     0.030 A 
HETATM   13  C20 UNL     1       4.394   2.093  -1.396  1.00  0.00     0.022 A 
HETATM   14  C21 UNL     1       5.229   1.496  -0.429  1.00  0.00     0.065 A 
HETATM   15  C22 UNL     1       4.749   0.337   0.254  1.00  0.00     0.086 A 
HETATM   16  C26 UNL     1       6.542   2.158  -0.179  1.00  0.00     0.254 C 
HETATM   17  C23 UNL     1       3.489  -0.182  -0.076  1.00  0.00     0.067 A 
HETATM   18  O2  UNL     1       5.439  -0.352   1.266  1.00  0.00    -0.348 OA
HETATM   19  C24 UNL     1       6.721  -0.047   1.793  1.00  0.00     0.195 C 
HETATM   20  C25 UNL     1       7.735   0.077   0.669  1.00  0.00     0.149 C 
HETATM   21  N2  UNL     1       7.733   1.441   0.171  1.00  0.00    -0.355 N 
HETATM   22  H19 UNL     1       8.635   1.969   0.195  1.00  0.00     0.162 HD
HETATM   23  O3  UNL     1       6.630   3.406  -0.338  1.00  0.00    -0.268 OA
ENDBRANCH   9  11
ENDBRANCH   1   7
BRANCH   5  24
HETATM   24  C7  UNL     1      -3.760  -0.526  -0.216  1.00  0.00    -0.025 A 
HETATM   25  C8  UNL     1      -3.757   0.815  -0.639  1.00  0.00     0.013 A 
HETATM   26  C9  UNL     1      -4.739   1.705  -0.197  1.00  0.00     0.013 A 
HETATM   27  C10 UNL     1      -5.744   1.270   0.677  1.00  0.00    -0.026 A 
HETATM   28  C11 UNL     1      -6.734   2.156   1.127  1.00  0.00     0.015 A 
HETATM   29  C15 UNL     1      -5.759  -0.077   1.111  1.00  0.00    -0.022 A 
HETATM   30  C12 UNL     1      -7.730   1.711   2.000  1.00  0.00     0.043 A 
HETATM   31  C13 UNL     1      -7.746   0.381   2.431  1.00  0.00     0.117 A 
HETATM   32  F1  UNL     1      -8.715  -0.044   3.279  1.00  0.00    -0.206 F 
HETATM   33  C14 UNL     1      -6.764  -0.512   1.989  1.00  0.00     0.054 A 
HETATM   34  C16 UNL     1      -4.769  -0.964   0.662  1.00  0.00     0.024 A 
ENDBRANCH   5  24
TORSDOF 3
