REMARK  5 active torsions:
REMARK  status: ('A' for Active; 'I' for Inactive)
REMARK    1  A    between atoms: C2_2  and  C5_5 
REMARK    2  A    between atoms: C8_8  and  N1_9 
REMARK    3  A    between atoms: N1_9  and  C9_10 
REMARK    4  A    between atoms: C9_10  and  C10_11 
REMARK    5  A    between atoms: C14_15  and  N2_16 
ROOT
HETATM    1  C10 UNL     1      -0.609   1.264  -2.267  1.00  0.00    -0.038 A 
HETATM    2  C11 UNL     1      -0.469   0.368  -3.337  1.00  0.00     0.009 A 
HETATM    3  C12 UNL     1      -1.236  -0.799  -3.384  1.00  0.00     0.003 A 
HETATM    4  C13 UNL     1      -2.150  -1.083  -2.366  1.00  0.00     0.029 A 
HETATM    5  C14 UNL     1      -2.310  -0.190  -1.299  1.00  0.00     0.036 A 
HETATM    6  C22 UNL     1      -1.543   0.985  -1.257  1.00  0.00     0.038 A 
ENDROOT
BRANCH   1   7
HETATM    7  C9  UNL     1       0.213   2.526  -2.211  1.00  0.00     0.158 C 
BRANCH   7   8
HETATM    8  N1  UNL     1       0.886   2.648  -0.916  1.00  0.00    -0.386 N 
HETATM    9  H12 UNL     1       0.555   3.405  -0.274  1.00  0.00     0.160 HD
BRANCH   8  10
HETATM   10  C8  UNL     1       1.885   1.728  -0.435  1.00  0.00     0.028 A 
HETATM   11  C7  UNL     1       2.217   1.728   0.924  1.00  0.00     0.029 A 
HETATM   12  C6  UNL     1       3.168   0.835   1.426  1.00  0.00     0.010 A 
HETATM   13  C5  UNL     1       3.831  -0.081   0.579  1.00  0.00    -0.051 A 
HETATM   14  C24 UNL     1       3.493  -0.066  -0.796  1.00  0.00     0.010 A 
HETATM   15  C23 UNL     1       2.536   0.824  -1.293  1.00  0.00     0.029 A 
BRANCH  13  16
HETATM   16  C2  UNL     1       4.855  -1.067   1.176  1.00  0.00    -0.024 C 
HETATM   17  C1  UNL     1       5.526  -1.966   0.109  1.00  0.00     0.019 C 
HETATM   18  C3  UNL     1       4.144  -1.989   2.188  1.00  0.00     0.019 C 
HETATM   19  C4  UNL     1       5.974  -0.283   1.895  1.00  0.00     0.019 C 
ENDBRANCH  13  16
ENDBRANCH   8  10
ENDBRANCH   7   8
ENDBRANCH   1   7
BRANCH   5  20
HETATM   20  N2  UNL     1      -3.242  -0.481  -0.247  1.00  0.00    -0.331 N 
HETATM   21  C15 UNL     1      -2.877  -1.562   0.674  1.00  0.00     0.150 C 
HETATM   22  C16 UNL     1      -4.098  -2.203   1.330  1.00  0.00     0.143 C 
HETATM   23  N3  UNL     1      -4.475  -1.449   2.519  1.00  0.00    -0.355 N 
HETATM   24  C17 UNL     1      -4.953  -0.103   2.460  1.00  0.00     0.255 C 
HETATM   25  H22 UNL     1      -4.436  -1.929   3.449  1.00  0.00     0.162 HD
HETATM   26  O1  UNL     1      -5.358   0.446   3.520  1.00  0.00    -0.268 OA
HETATM   27  C18 UNL     1      -5.022   0.648   1.192  1.00  0.00     0.077 A 
HETATM   28  C19 UNL     1      -5.860   1.728   0.973  1.00  0.00     0.038 A 
HETATM   29  C21 UNL     1      -4.306   0.467   0.009  1.00  0.00     0.123 A 
HETATM   30  C20 UNL     1      -5.641   2.148  -0.322  1.00  0.00     0.091 A 
HETATM   31  N4  UNL     1      -4.702   1.382  -0.903  1.00  0.00    -0.351 N 
HETATM   32  H25 UNL     1      -4.350   1.493  -1.880  1.00  0.00     0.166 HD
ENDBRANCH   5  20
TORSDOF 5
