REMARK  0 active torsions:
REMARK  status: ('A' for Active; 'I' for Inactive)
ROOT
HETATM    1  C1  UNL     1       1.477  -3.335  -1.055  1.00  0.00     0.050 C 
HETATM    2  C2  UNL     1       1.667  -1.856  -1.262  1.00  0.00    -0.034 A 
HETATM    3  C3  UNL     1       2.197  -1.403  -2.480  1.00  0.00     0.009 A 
HETATM    4  C4  UNL     1       2.390  -0.042  -2.705  1.00  0.00     0.002 A 
HETATM    5  C5  UNL     1       2.050   0.883  -1.723  1.00  0.00     0.014 A 
HETATM    6  C6  UNL     1       1.524   0.461  -0.493  1.00  0.00     0.002 A 
HETATM    7  C7  UNL     1       1.338  -0.928  -0.244  1.00  0.00     0.051 A 
HETATM    8  N1  UNL     1       0.936  -1.428   1.050  1.00  0.00    -0.325 N 
HETATM    9  C8  UNL     1       0.038  -0.776   1.954  1.00  0.00     0.230 C 
HETATM   10  O1  UNL     1       0.466  -0.429   3.088  1.00  0.00    -0.272 OA
HETATM   11  C9  UNL     1      -1.438  -0.642   1.659  1.00  0.00     0.108 C 
HETATM   12  C10 UNL     1      -2.142  -1.945   2.069  1.00  0.00     0.025 C 
HETATM   13  C11 UNL     1      -1.737  -0.166   0.232  1.00  0.00    -0.034 A 
HETATM   14  C12 UNL     1      -2.532  -0.925  -0.659  1.00  0.00     0.009 A 
HETATM   15  C13 UNL     1      -2.873  -0.426  -1.918  1.00  0.00     0.001 A 
HETATM   16  C14 UNL     1      -2.434   0.834  -2.317  1.00  0.00     0.001 A 
HETATM   17  C15 UNL     1      -1.633   1.594  -1.467  1.00  0.00     0.013 A 
HETATM   18  C16 UNL     1      -1.277   1.105  -0.202  1.00  0.00    -0.018 A 
HETATM   19  C17 UNL     1      -0.268   1.852   0.573  1.00  0.00    -0.014 A 
HETATM   20  C18 UNL     1      -0.660   2.882   1.439  1.00  0.00     0.013 A 
HETATM   21  C19 UNL     1       0.300   3.570   2.186  1.00  0.00     0.001 A 
HETATM   22  C20 UNL     1       1.653   3.238   2.069  1.00  0.00     0.001 A 
HETATM   23  C21 UNL     1       2.053   2.215   1.203  1.00  0.00     0.013 A 
HETATM   24  C22 UNL     1       1.097   1.510   0.459  1.00  0.00    -0.013 A 
HETATM   25  H7  UNL     1       1.442  -2.260   1.428  1.00  0.00     0.169 HD
ENDROOT
TORSDOF 0
