REMARK  1 active torsions:
REMARK  status: ('A' for Active; 'I' for Inactive)
REMARK    1  A    between atoms: C8_8  and  N1_9 
ROOT
HETATM    1  C1  UNL     1       5.539   1.597  -0.594  1.00  0.00     0.048 C 
HETATM    2  C2  UNL     1       4.380   0.714  -0.237  1.00  0.00    -0.061 A 
HETATM    3  C3  UNL     1       4.518  -0.675  -0.266  1.00  0.00     0.007 A 
HETATM    4  C4  UNL     1       3.453  -1.493   0.104  1.00  0.00     0.013 A 
HETATM    5  C5  UNL     1       2.225  -0.945   0.510  1.00  0.00    -0.017 A 
HETATM    6  C6  UNL     1       2.067   0.466   0.541  1.00  0.00    -0.014 A 
HETATM    7  C7  UNL     1       3.166   1.276   0.176  1.00  0.00     0.017 A 
HETATM    8  C8  UNL     1       0.709   1.119   0.779  1.00  0.00     0.256 C 
HETATM    9  C9  UNL     1       0.201   1.664  -0.572  1.00  0.00     0.079 C 
HETATM   10  C10 UNL     1      -1.139   2.374  -0.576  1.00  0.00    -0.045 A 
HETATM   11  C11 UNL     1      -1.192   3.612  -1.256  1.00  0.00     0.008 A 
HETATM   12  C12 UNL     1      -2.400   4.273  -1.465  1.00  0.00     0.001 A 
HETATM   13  C13 UNL     1      -3.587   3.710  -1.019  1.00  0.00     0.001 A 
HETATM   14  C14 UNL     1      -3.568   2.493  -0.343  1.00  0.00     0.013 A 
HETATM   15  C15 UNL     1      -2.359   1.807  -0.102  1.00  0.00    -0.019 A 
HETATM   16  C16 UNL     1      -2.472   0.592   0.750  1.00  0.00    -0.014 C 
HETATM   17  C17 UNL     1      -2.980   0.783   2.050  1.00  0.00     0.013 C 
HETATM   18  C18 UNL     1      -3.432  -0.295   2.809  1.00  0.00     0.001 C 
HETATM   19  C19 UNL     1      -3.434  -1.574   2.263  1.00  0.00     0.001 C 
HETATM   20  C20 UNL     1      -2.911  -1.788   0.989  1.00  0.00     0.013 C 
HETATM   21  C21 UNL     1      -2.338  -0.735   0.255  1.00  0.00    -0.014 C 
HETATM   22  C22 UNL     1      -1.579  -1.056  -0.983  1.00  0.00    -0.014 A 
HETATM   23  C23 UNL     1      -2.047  -0.572  -2.216  1.00  0.00     0.013 A 
HETATM   24  C24 UNL     1      -1.312  -0.782  -3.385  1.00  0.00     0.001 A 
HETATM   25  C25 UNL     1      -0.103  -1.477  -3.340  1.00  0.00     0.001 A 
HETATM   26  C26 UNL     1       0.373  -1.983  -2.129  1.00  0.00     0.013 A 
HETATM   27  C27 UNL     1      -0.351  -1.789  -0.943  1.00  0.00    -0.014 A 
HETATM   28  C28 UNL     1       0.151  -2.420   0.305  1.00  0.00    -0.014 C 
HETATM   29  C29 UNL     1      -0.457  -3.614   0.732  1.00  0.00     0.013 C 
HETATM   30  C30 UNL     1      -0.132  -4.182   1.964  1.00  0.00     0.001 C 
HETATM   31  C31 UNL     1       0.840  -3.592   2.767  1.00  0.00     0.001 C 
HETATM   32  C32 UNL     1       1.534  -2.472   2.311  1.00  0.00     0.013 C 
HETATM   33  C33 UNL     1       1.230  -1.895   1.064  1.00  0.00    -0.014 C 
ENDROOT
BRANCH   8  34
HETATM   34  N1  UNL     1       0.773   2.181   1.788  1.00  0.00     0.087 N 
HETATM   35  H8  UNL     1       1.252   1.810   2.641  1.00  0.00     0.313 HD
HETATM   36  H9  UNL     1       1.327   2.993   1.435  1.00  0.00     0.313 HD
ENDBRANCH   8  34
TORSDOF 1
