REMARK  8 active torsions:
REMARK  status: ('A' for Active; 'I' for Inactive)
REMARK    1  A    between atoms: C2_2  and  C3_3 
REMARK    2  A    between atoms: C8_8  and  N1_9 
REMARK    3  A    between atoms: N1_9  and  C9_10 
REMARK    4  A    between atoms: C10_12  and  C12_14 
REMARK    5  A    between atoms: C12_14  and  O1_15 
REMARK    6  A    between atoms: N3_16  and  C13_17 
REMARK    7  A    between atoms: N4_22  and  C18_23 
REMARK    8  A    between atoms: C18_23  and  C19_24 
ROOT
HETATM    1  C9  UNL     1      -0.004   0.439  -0.825  1.00  0.00     0.701 C 
HETATM    2  N2  UNL     1      -0.201  -0.689  -0.203  1.00  0.00    -0.062 NA
HETATM    3  C10 UNL     1      -1.269  -1.015   0.758  1.00  0.00     0.286 C 
HETATM    4  C11 UNL     1      -1.176  -0.051   1.974  1.00  0.00     0.079 C 
HETATM    5  N3  UNL     1      -2.620  -1.020   0.098  1.00  0.00     0.128 N 
HETATM    6  C16 UNL     1      -2.760  -0.191  -1.124  1.00  0.00     0.296 C 
HETATM    7  C17 UNL     1      -2.397   1.288  -0.911  1.00  0.00     0.172 C 
HETATM    8  N4  UNL     1      -0.954   1.516  -0.723  1.00  0.00    -0.208 N 
ENDROOT
BRANCH   1   9
HETATM    9  N1  UNL     1       1.126   0.573  -1.702  1.00  0.00    -0.190 N 
HETATM   10  H11 UNL     1       1.089   1.319  -2.432  1.00  0.00     0.184 HD
BRANCH   9  11
HETATM   11  C8  UNL     1       2.260  -0.314  -1.674  1.00  0.00     0.055 A 
HETATM   12  C6  UNL     1       2.880  -0.725  -2.875  1.00  0.00    -0.035 A 
HETATM   13  C5  UNL     1       4.007  -1.562  -2.819  1.00  0.00     0.009 A 
HETATM   14  C7  UNL     1       2.359  -0.273  -4.213  1.00  0.00     0.050 C 
HETATM   15  C4  UNL     1       4.506  -2.001  -1.592  1.00  0.00     0.007 A 
HETATM   16  C3  UNL     1       3.891  -1.607  -0.396  1.00  0.00    -0.056 A 
HETATM   17  C23 UNL     1       2.785  -0.747  -0.443  1.00  0.00     0.037 A 
BRANCH  16  18
HETATM   18  C2  UNL     1       4.454  -2.046   0.929  1.00  0.00     0.034 C 
HETATM   19  C1  UNL     1       5.497  -1.053   1.429  1.00  0.00     0.010 C 
ENDBRANCH  16  18
ENDBRANCH   9  11
ENDBRANCH   1   9
BRANCH   8  20
HETATM   20  C18 UNL     1      -0.465   2.899  -0.645  1.00  0.00     0.206 C 
BRANCH  20  21
HETATM   21  C19 UNL     1      -0.978   3.571   0.590  1.00  0.00     0.070 A 
HETATM   22  C20 UNL     1      -2.065   4.418   0.657  1.00  0.00     0.036 A 
HETATM   23  C21 UNL     1      -2.180   4.766   1.985  1.00  0.00     0.027 A 
HETATM   24  C22 UNL     1      -1.160   4.108   2.644  1.00  0.00     0.142 A 
HETATM   25  O2  UNL     1      -0.461   3.403   1.784  1.00  0.00    -0.325 OA
ENDBRANCH  20  21
ENDBRANCH   8  20
BRANCH   3  26
HETATM   26  C12 UNL     1      -0.974  -2.449   1.257  1.00  0.00     0.231 C 
BRANCH  26  27
HETATM   27  O1  UNL     1       0.341  -2.560   1.742  1.00  0.00    -0.396 OA
HETATM   28  H17 UNL     1       0.919  -2.790   0.967  1.00  0.00     0.209 HD
ENDBRANCH  26  27
ENDBRANCH   3  26
BRANCH   5  29
HETATM   29  C13 UNL     1      -3.763  -0.826   1.016  1.00  0.00     0.226 A 
HETATM   30  C14 UNL     1      -4.286  -2.109   1.649  1.00  0.00     0.038 A 
HETATM   31  C15 UNL     1      -5.062  -1.454   0.526  1.00  0.00     0.038 A 
ENDBRANCH   5  29
TORSDOF 8
