REMARK  3 active torsions:
REMARK  status: ('A' for Active; 'I' for Inactive)
REMARK    1  A    between atoms: C7_7  and  N1_8 
REMARK       I    between atoms: N1_8  and  C8_9 
REMARK    2  A    between atoms: C8_9  and  C9_11 
REMARK    3  A    between atoms: C15_17  and  C16_18 
ROOT
HETATM    1  C9  UNL     1      -0.322  -0.367  -1.075  1.00  0.00     0.033 A 
HETATM    2  C10 UNL     1      -0.242  -1.554  -1.811  1.00  0.00     0.019 A 
HETATM    3  C11 UNL     1      -1.372  -2.349  -1.986  1.00  0.00     0.031 A 
HETATM    4  C12 UNL     1      -2.612  -1.983  -1.438  1.00  0.00     0.041 A 
HETATM    5  C13 UNL     1      -2.705  -0.790  -0.661  1.00  0.00    -0.022 A 
HETATM    6  C14 UNL     1      -1.552   0.010  -0.522  1.00  0.00     0.027 A 
HETATM    7  C15 UNL     1      -3.924  -0.343   0.151  1.00  0.00     0.056 C 
HETATM    8  C21 UNL     1      -5.288  -0.980  -0.179  1.00  0.00     0.023 C 
HETATM    9  C22 UNL     1      -5.549  -1.061  -1.682  1.00  0.00     0.104 C 
HETATM   10  C23 UNL     1      -4.981  -2.337  -2.207  1.00  0.00     0.222 C 
HETATM   11  O2  UNL     1      -5.634  -3.005  -3.053  1.00  0.00    -0.273 OA
HETATM   12  N3  UNL     1      -3.731  -2.837  -1.724  1.00  0.00    -0.327 N 
HETATM   13  H19 UNL     1      -3.529  -3.844  -1.919  1.00  0.00     0.169 HD
ENDROOT
BRANCH   1  14
HETATM   14  C8  UNL     1       0.872   0.486  -0.871  1.00  0.00     0.256 C 
HETATM   15  N1  UNL     1       2.180  -0.097  -0.733  1.00  0.00    -0.322 N 
HETATM   16  H6  UNL     1       2.278  -1.131  -0.814  1.00  0.00     0.169 HD
HETATM   17  O1  UNL     1       0.727   1.738  -0.814  1.00  0.00    -0.267 OA
BRANCH  15  18
HETATM   18  C7  UNL     1       3.379   0.669  -0.517  1.00  0.00     0.042 A 
HETATM   19  C2  UNL     1       4.588   0.314  -1.185  1.00  0.00    -0.035 A 
HETATM   20  C1  UNL     1       4.626  -0.842  -2.146  1.00  0.00     0.050 C 
HETATM   21  C3  UNL     1       5.773   1.039  -0.931  1.00  0.00     0.019 A 
HETATM   22  C4  UNL     1       5.734   2.099  -0.032  1.00  0.00    -0.024 A 
HETATM   23  C5  UNL     1       4.568   2.433   0.612  1.00  0.00     0.042 A 
HETATM   24  C25 UNL     1       6.865   2.992   0.397  1.00  0.00     0.162 A 
HETATM   25  C6  UNL     1       3.382   1.739   0.404  1.00  0.00     0.047 A 
HETATM   26  C24 UNL     1       4.865   3.539   1.483  1.00  0.00     0.252 A 
HETATM   27  O3  UNL     1       4.050   4.120   2.246  1.00  0.00    -0.268 OA
HETATM   28  N4  UNL     1       6.236   3.892   1.364  1.00  0.00    -0.353 N 
HETATM   29  H20 UNL     1       6.715   4.665   1.881  1.00  0.00     0.163 HD
ENDBRANCH  15  18
ENDBRANCH   1  14
BRANCH   7  30
HETATM   30  C16 UNL     1      -3.641  -0.497   1.633  1.00  0.00    -0.032 A 
HETATM   31  C17 UNL     1      -3.267  -1.741   2.175  1.00  0.00     0.124 A 
HETATM   32  N2  UNL     1      -3.008  -1.860   3.504  1.00  0.00    -0.273 NA
HETATM   33  C18 UNL     1      -3.107  -0.801   4.349  1.00  0.00     0.116 A 
HETATM   34  C19 UNL     1      -3.486   0.451   3.861  1.00  0.00     0.020 A 
HETATM   35  C20 UNL     1      -3.756   0.602   2.500  1.00  0.00     0.011 A 
ENDBRANCH   7  30
TORSDOF 3
