REMARK  1 active torsions:
REMARK  status: ('A' for Active; 'I' for Inactive)
REMARK    1  A    between atoms: C10_12  and  C11_13 
ROOT
HETATM    1  C1  UNL     1      -5.402  -0.253  -2.316  1.00  0.00     0.049 C 
HETATM    2  C2  UNL     1      -4.633  -0.266  -1.028  1.00  0.00    -0.042 A 
HETATM    3  C3  UNL     1      -4.949  -1.184  -0.018  1.00  0.00     0.124 A 
HETATM    4  N1  UNL     1      -4.223  -1.213   1.130  1.00  0.00    -0.254 NA
HETATM    5  C4  UNL     1      -3.164  -0.384   1.338  1.00  0.00     0.136 A 
HETATM    6  C5  UNL     1      -2.816   0.555   0.352  1.00  0.00     0.109 A 
HETATM    7  C6  UNL     1      -3.550   0.600  -0.837  1.00  0.00     0.048 A 
HETATM    8  O1  UNL     1      -1.782   1.466   0.559  1.00  0.00    -0.308 OA
HETATM    9  C7  UNL     1      -0.471   1.148   0.213  1.00  0.00     0.082 A 
HETATM   10  C8  UNL     1      -0.034   1.338  -1.102  1.00  0.00     0.039 A 
HETATM   11  C9  UNL     1       1.273   1.008  -1.465  1.00  0.00     0.015 A 
HETATM   12  C10 UNL     1       2.163   0.477  -0.516  1.00  0.00    -0.025 A 
HETATM   13  C17 UNL     1       1.719   0.292   0.807  1.00  0.00     0.022 A 
HETATM   14  C18 UNL     1       0.409   0.636   1.180  1.00  0.00    -0.023 A 
HETATM   15  C19 UNL     1      -0.065   0.401   2.594  1.00  0.00     0.049 C 
HETATM   16  C20 UNL     1      -0.983  -0.830   2.681  1.00  0.00     0.090 C 
HETATM   17  C21 UNL     1      -2.442  -0.467   2.618  1.00  0.00     0.181 C 
HETATM   18  O2  UNL     1      -3.076  -0.275   3.689  1.00  0.00    -0.291 OA
ENDROOT
BRANCH  12  19
HETATM   19  C11 UNL     1       3.550   0.115  -0.904  1.00  0.00    -0.026 A 
HETATM   20  C12 UNL     1       4.292   0.945  -1.766  1.00  0.00     0.012 A 
HETATM   21  C13 UNL     1       5.598   0.601  -2.130  1.00  0.00     0.001 A 
HETATM   22  C14 UNL     1       6.176  -0.573  -1.641  1.00  0.00     0.000 A 
HETATM   23  C15 UNL     1       5.450  -1.405  -0.786  1.00  0.00     0.001 A 
HETATM   24  C16 UNL     1       4.144  -1.066  -0.418  1.00  0.00     0.012 A 
ENDBRANCH  12  19
TORSDOF 1
