REMARK  3 active torsions:
REMARK  status: ('A' for Active; 'I' for Inactive)
REMARK    1  A    between atoms: C3_4  and  C4_5 
REMARK    2  A    between atoms: C4_5  and  N2_6 
REMARK    3  A    between atoms: C15_20  and  C16_21 
ROOT
HETATM    1  N2  UNL     1       1.006  -0.473   0.143  1.00  0.00    -0.295 N 
HETATM    2  C5  UNL     1       1.060  -1.568   1.086  1.00  0.00     0.323 C 
HETATM    3  O1  UNL     1       0.007  -2.195   1.383  1.00  0.00    -0.247 OA
HETATM    4  N3  UNL     1       2.281  -1.921   1.752  1.00  0.00    -0.342 N 
HETATM    5  C6  UNL     1       3.522  -2.266   1.051  1.00  0.00     0.129 C 
HETATM    6  C7  UNL     1       3.610  -1.662  -0.352  1.00  0.00     0.060 C 
HETATM    7  C8  UNL     1       3.430  -0.171  -0.301  1.00  0.00    -0.028 A 
HETATM    8  C9  UNL     1       4.538   0.676  -0.475  1.00  0.00     0.032 A 
HETATM    9  C10 UNL     1       4.377   2.065  -0.448  1.00  0.00     0.045 A 
HETATM   10  C11 UNL     1       5.515   2.927  -0.634  1.00  0.00     0.099 C 
HETATM   11  N4  UNL     1       6.430   3.620  -0.783  1.00  0.00    -0.191 NA
HETATM   12  C12 UNL     1       3.108   2.615  -0.246  1.00  0.00     0.025 A 
HETATM   13  C13 UNL     1       2.004   1.781  -0.060  1.00  0.00     0.032 A 
HETATM   14  C14 UNL     1       2.153   0.382  -0.068  1.00  0.00     0.045 A 
HETATM   15  H7  UNL     1       2.197  -2.278   2.730  1.00  0.00     0.164 HD
ENDROOT
BRANCH   1  16
HETATM   16  C4  UNL     1      -0.248  -0.200  -0.578  1.00  0.00     0.176 C 
BRANCH  16  17
HETATM   17  C3  UNL     1      -1.314   0.341   0.340  1.00  0.00     0.009 A 
HETATM   18  C2  UNL     1      -1.125   0.994   1.545  1.00  0.00     0.123 A 
HETATM   19  N1  UNL     1      -2.332   1.260   2.073  1.00  0.00    -0.284 N 
HETATM   20  C1  UNL     1      -2.578   1.978   3.316  1.00  0.00     0.179 C 
HETATM   21  N5  UNL     1      -3.289   0.836   1.263  1.00  0.00    -0.172 NA
HETATM   22  C15 UNL     1      -2.697   0.273   0.190  1.00  0.00     0.096 A 
BRANCH  22  23
HETATM   23  C16 UNL     1      -3.463  -0.338  -0.919  1.00  0.00    -0.005 A 
HETATM   24  C17 UNL     1      -4.667  -1.007  -0.642  1.00  0.00     0.014 A 
HETATM   25  C18 UNL     1      -5.410  -1.585  -1.676  1.00  0.00     0.001 A 
HETATM   26  C19 UNL     1      -4.965  -1.488  -2.997  1.00  0.00     0.000 A 
HETATM   27  C20 UNL     1      -3.781  -0.805  -3.286  1.00  0.00     0.001 A 
HETATM   28  C21 UNL     1      -3.035  -0.227  -2.254  1.00  0.00     0.014 A 
ENDBRANCH  22  23
ENDBRANCH  16  17
ENDBRANCH   1  16
TORSDOF 3
