REMARK  3 active torsions:
REMARK  status: ('A' for Active; 'I' for Inactive)
REMARK    1  A    between atoms: C5_5  and  C6_6 
REMARK    2  A    between atoms: C12_12  and  N1_13 
REMARK       I    between atoms: N1_13  and  C14_15 
REMARK       I    between atoms: C14_15  and  N2_17 
REMARK    3  A    between atoms: N2_17  and  C15_18 
ROOT
HETATM    1  N1  UNL     1      -1.274  -0.767  -0.720  1.00  0.00    -0.303 N 
HETATM    2  C13 UNL     1      -1.239  -0.141  -2.045  1.00  0.00     0.161 C 
HETATM    3  C14 UNL     1      -0.060  -0.992   0.028  1.00  0.00     0.327 C 
HETATM    4  O1  UNL     1      -0.107  -1.641   1.110  1.00  0.00    -0.246 OA
HETATM    5  N2  UNL     1       1.192  -0.439  -0.415  1.00  0.00    -0.306 N 
HETATM    6  H14 UNL     1       1.174   0.355  -1.093  1.00  0.00     0.171 HD
ENDROOT
BRANCH   1   7
HETATM    7  C12 UNL     1      -2.543  -1.161  -0.167  1.00  0.00     0.050 A 
HETATM    8  C5  UNL     1      -3.528  -0.199   0.159  1.00  0.00     0.001 A 
HETATM    9  C4  UNL     1      -4.785  -0.632   0.613  1.00  0.00     0.015 A 
HETATM   10  C3  UNL     1      -5.056  -1.993   0.765  1.00  0.00     0.007 A 
HETATM   11  C2  UNL     1      -4.072  -2.947   0.475  1.00  0.00    -0.060 A 
HETATM   12  C1  UNL     1      -4.378  -4.410   0.602  1.00  0.00     0.048 C 
HETATM   13  C24 UNL     1      -2.826  -2.526  -0.008  1.00  0.00     0.037 A 
BRANCH   8  14
HETATM   14  C6  UNL     1      -3.260   1.253   0.047  1.00  0.00    -0.024 A 
HETATM   15  C7  UNL     1      -4.119   2.075  -0.702  1.00  0.00     0.012 A 
HETATM   16  C8  UNL     1      -3.861   3.445  -0.817  1.00  0.00     0.001 A 
HETATM   17  C9  UNL     1      -2.749   4.004  -0.181  1.00  0.00     0.000 A 
HETATM   18  C10 UNL     1      -1.897   3.196   0.576  1.00  0.00     0.001 A 
HETATM   19  C11 UNL     1      -2.152   1.827   0.694  1.00  0.00     0.012 A 
ENDBRANCH   8  14
ENDBRANCH   1   7
BRANCH   5  20
HETATM   20  C15 UNL     1       2.463  -0.827   0.136  1.00  0.00     0.070 A 
HETATM   21  C16 UNL     1       2.724  -2.175   0.421  1.00  0.00     0.032 A 
HETATM   22  C17 UNL     1       3.958  -2.562   0.931  1.00  0.00     0.003 A 
HETATM   23  C18 UNL     1       4.953  -1.614   1.150  1.00  0.00     0.012 A 
HETATM   24  C19 UNL     1       4.737  -0.256   0.853  1.00  0.00    -0.005 A 
HETATM   25  C20 UNL     1       3.464   0.148   0.345  1.00  0.00     0.104 A 
HETATM   26  C23 UNL     1       5.870   0.707   1.135  1.00  0.00     0.164 C 
HETATM   27  O2  UNL     1       3.120   1.478   0.022  1.00  0.00    -0.339 OA
HETATM   28  C21 UNL     1       3.883   2.655   0.263  1.00  0.00     0.278 C 
HETATM   29  C22 UNL     1       5.206   2.560  -0.421  1.00  0.00     0.242 C 
HETATM   30  O3  UNL     1       5.491   3.342  -1.366  1.00  0.00    -0.271 OA
HETATM   31  N3  UNL     1       6.138   1.559  -0.018  1.00  0.00    -0.355 N 
HETATM   32  H20 UNL     1       7.050   1.474  -0.520  1.00  0.00     0.162 HD
ENDBRANCH   5  20
TORSDOF 3
