REMARK  3 active torsions:
REMARK  status: ('A' for Active; 'I' for Inactive)
REMARK    1  A    between atoms: C2_2  and  O1_3 
REMARK    2  A    between atoms: O1_3  and  C3_4 
REMARK    3  A    between atoms: C6_8  and  C7_9 
REMARK       I    between atoms: C7_9  and  N2_11 
ROOT
HETATM    1  C7  UNL     1       0.851  -1.780   0.324  1.00  0.00     0.226 C 
HETATM    2  O2  UNL     1       1.311  -2.779  -0.295  1.00  0.00    -0.273 OA
HETATM    3  N2  UNL     1      -0.499  -1.835   0.836  1.00  0.00    -0.345 N 
HETATM    4  C8  UNL     1      -0.822  -1.301   2.161  1.00  0.00     0.166 C 
HETATM    5  C9  UNL     1      -1.404   0.084   2.042  1.00  0.00    -0.011 A 
HETATM    6  C10 UNL     1      -0.926   1.065   2.928  1.00  0.00     0.030 A 
HETATM    7  C11 UNL     1      -1.375   2.377   2.822  1.00  0.00     0.117 A 
HETATM    8  N3  UNL     1      -2.272   2.712   1.864  1.00  0.00    -0.271 NA
HETATM    9  C12 UNL     1      -2.780   1.793   1.001  1.00  0.00     0.146 A 
HETATM   10  C13 UNL     1      -2.394   0.434   1.074  1.00  0.00     0.056 A 
HETATM   11  N4  UNL     1      -2.999  -0.538   0.170  1.00  0.00    -0.365 N 
HETATM   12  C14 UNL     1      -3.900  -0.155  -0.912  1.00  0.00     0.202 A 
HETATM   13  C15 UNL     1      -4.441  -1.435  -1.411  1.00  0.00     0.146 A 
HETATM   14  O3  UNL     1      -5.226  -1.515  -2.345  1.00  0.00    -0.296 OA
HETATM   15  C16 UNL     1      -3.951  -2.608  -0.656  1.00  0.00     0.107 A 
HETATM   16  C17 UNL     1      -2.940  -2.002   0.336  1.00  0.00     0.110 A 
HETATM   17  C18 UNL     1      -1.521  -2.535   0.054  1.00  0.00     0.151 C 
ENDROOT
BRANCH   1  18
HETATM   18  C6  UNL     1       1.690  -0.527   0.484  1.00  0.00     0.110 C 
HETATM   19  C4  UNL     1       3.137  -0.642  -0.054  1.00  0.00     0.120 C 
HETATM   20  N1  UNL     1       3.420   0.656  -0.639  1.00  0.00    -0.265 NA
HETATM   21  C5  UNL     1       4.149  -0.973   1.041  1.00  0.00     0.035 C 
HETATM   22  C3  UNL     1       2.335   1.337  -0.788  1.00  0.00     0.136 C 
HETATM   23  C19 UNL     1       1.113   0.658  -0.298  1.00  0.00     0.102 C 
BRANCH  22  24
HETATM   24  O1  UNL     1       2.310   2.617  -1.352  1.00  0.00    -0.338 OA
BRANCH  24  25
HETATM   25  C2  UNL     1       3.463   3.261  -1.892  1.00  0.00     0.172 C 
HETATM   26  C1  UNL     1       3.797   2.694  -3.268  1.00  0.00     0.034 C 
ENDBRANCH  24  25
ENDBRANCH  22  24
ENDBRANCH   1  18
TORSDOF 3
