REMARK  2 active torsions:
REMARK  status: ('A' for Active; 'I' for Inactive)
REMARK       I    between atoms: C1_2  and  N1_3 
REMARK    1  A    between atoms: C1_2  and  C8_10 
REMARK    2  A    between atoms: N1_3  and  C2_4 
ROOT
HETATM    1  C8  UNL     1       0.278  -0.204   1.680  1.00  0.00     0.042 A 
HETATM    2  C9  UNL     1       0.694  -0.099   3.016  1.00  0.00     0.036 A 
HETATM    3  C10 UNL     1       2.039   0.068   3.334  1.00  0.00     0.012 A 
HETATM    4 BR1  UNL     1       2.574   0.239   5.160  1.00  0.00    -0.051 Br
HETATM    5  C11 UNL     1       2.992   0.124   2.322  1.00  0.00     0.032 A 
HETATM    6  C12 UNL     1       2.616  -0.018   0.979  1.00  0.00    -0.015 A 
HETATM    7  C13 UNL     1       1.246  -0.204   0.633  1.00  0.00    -0.004 A 
HETATM    8  C14 UNL     1       0.827  -0.343  -0.832  1.00  0.00     0.310 C 
HETATM    9  N2  UNL     1       1.526  -1.466  -1.489  1.00  0.00     0.091 N 
HETATM   10  C15 UNL     1       2.655  -1.012  -2.314  1.00  0.00     0.309 C 
HETATM   11  C16 UNL     1       3.699  -0.424  -1.436  1.00  0.00    -0.019 A 
HETATM   12  C17 UNL     1       4.966  -0.055  -1.531  1.00  0.00     0.011 A 
HETATM   13  C18 UNL     1       4.952   0.333  -0.124  1.00  0.00     0.013 A 
HETATM   14  C19 UNL     1       3.670  -0.002  -0.048  1.00  0.00    -0.017 A 
HETATM   15  H11 UNL     1       0.854  -1.946  -2.133  1.00  0.00     0.316 HD
ENDROOT
BRANCH   1  16
HETATM   16  C1  UNL     1      -1.176  -0.267   1.427  1.00  0.00     0.256 C 
HETATM   17  O1  UNL     1      -1.870  -1.132   2.028  1.00  0.00    -0.267 OA
HETATM   18  N1  UNL     1      -1.806   0.718   0.594  1.00  0.00    -0.323 N 
HETATM   19  H1  UNL     1      -1.283   1.605   0.410  1.00  0.00     0.169 HD
BRANCH  18  20
HETATM   20  C2  UNL     1      -3.137   0.593   0.063  1.00  0.00     0.035 A 
HETATM   21  C3  UNL     1      -3.891   1.751  -0.184  1.00  0.00     0.029 A 
HETATM   22  C4  UNL     1      -5.178   1.655  -0.722  1.00  0.00     0.002 A 
HETATM   23  C5  UNL     1      -5.717   0.404  -1.032  1.00  0.00     0.000 A 
HETATM   24  C6  UNL     1      -4.966  -0.753  -0.811  1.00  0.00     0.002 A 
HETATM   25  C7  UNL     1      -3.678  -0.662  -0.272  1.00  0.00     0.029 A 
ENDBRANCH  18  20
ENDBRANCH   1  16
TORSDOF 2
