REMARK  4 active torsions:
REMARK  status: ('A' for Active; 'I' for Inactive)
REMARK    1  A    between atoms: O1_2  and  C2_3 
REMARK    2  A    between atoms: C2_3  and  C4_5 
REMARK    3  A    between atoms: C2_3  and  C10_12 
REMARK       I    between atoms: C10_12  and  N1_14 
REMARK    4  A    between atoms: N1_14  and  C11_15 
ROOT
HETATM    1  C10 UNL     1       0.858   0.777   0.117  1.00  0.00     0.257 C 
HETATM    2  O2  UNL     1       1.351   1.707  -0.582  1.00  0.00    -0.270 OA
HETATM    3  N1  UNL     1      -0.516   0.401  -0.083  1.00  0.00    -0.349 N 
HETATM    4  H11 UNL     1      -0.981  -0.220   0.617  1.00  0.00     0.163 HD
ENDROOT
BRANCH   3   5
HETATM    5  C11 UNL     1      -1.319   0.927  -1.193  1.00  0.00     0.120 C 
HETATM    6  C12 UNL     1      -1.794   2.370  -0.931  1.00  0.00     0.050 C 
HETATM    7  C13 UNL     1      -2.355   2.591   0.473  1.00  0.00     0.125 C 
HETATM    8  N2  UNL     1      -3.638   1.927   0.642  1.00  0.00    -0.357 N 
HETATM    9  C14 UNL     1      -3.775   0.506   0.607  1.00  0.00     0.252 C 
HETATM   10  H17 UNL     1      -4.411   2.477   1.079  1.00  0.00     0.162 HD
HETATM   11  O3  UNL     1      -4.241  -0.083   1.620  1.00  0.00    -0.268 OA
HETATM   12  C15 UNL     1      -3.551  -0.262  -0.640  1.00  0.00     0.040 A 
HETATM   13  C16 UNL     1      -4.487  -1.263  -0.963  1.00  0.00     0.017 A 
HETATM   14  C20 UNL     1      -2.459  -0.024  -1.521  1.00  0.00    -0.020 A 
HETATM   15  C17 UNL     1      -4.368  -2.004  -2.138  1.00  0.00     0.001 A 
HETATM   16  C18 UNL     1      -3.309  -1.765  -3.007  1.00  0.00     0.001 A 
HETATM   17  C19 UNL     1      -2.359  -0.791  -2.700  1.00  0.00     0.010 A 
ENDBRANCH   3   5
BRANCH   1  18
HETATM   18  C2  UNL     1       1.691   0.175   1.253  1.00  0.00     0.167 C 
HETATM   19  C3  UNL     1       1.784   1.301   2.306  1.00  0.00     0.062 C 
BRANCH  18  20
HETATM   20  O1  UNL     1       1.001  -0.911   1.870  1.00  0.00    -0.371 OA
HETATM   21  C1  UNL     1       1.012  -2.093   1.088  1.00  0.00     0.203 C 
ENDBRANCH  18  20
BRANCH  18  22
HETATM   22  C4  UNL     1       3.123  -0.246   0.830  1.00  0.00     0.024 A 
HETATM   23  C5  UNL     1       3.515  -0.308  -0.530  1.00  0.00     0.014 A 
HETATM   24  C6  UNL     1       4.804  -0.711  -0.890  1.00  0.00     0.001 A 
HETATM   25  C7  UNL     1       5.718  -1.094   0.088  1.00  0.00     0.003 A 
HETATM   26  C8  UNL     1       5.338  -1.102   1.428  1.00  0.00     0.043 A 
HETATM   27  C9  UNL     1       4.051  -0.702   1.801  1.00  0.00     0.126 A 
HETATM   28  F1  UNL     1       3.702  -0.820   3.106  1.00  0.00    -0.205 F 
ENDBRANCH  18  22
ENDBRANCH   1  18
TORSDOF 4
