REMARK  2 active torsions:
REMARK  status: ('A' for Active; 'I' for Inactive)
REMARK    1  A    between atoms: C1_2  and  C2_3 
REMARK       I    between atoms: C1_2  and  N1_23 
REMARK    2  A    between atoms: N1_23  and  C21_24 
ROOT
HETATM    1  C2  UNL     1      -0.324   0.235   1.236  1.00  0.00     0.033 A 
HETATM    2  C3  UNL     1      -1.106   0.828   2.226  1.00  0.00     0.018 A 
HETATM    3  C4  UNL     1      -2.492   0.735   2.178  1.00  0.00     0.014 A 
HETATM    4  C5  UNL     1      -3.158   0.051   1.132  1.00  0.00    -0.011 A 
HETATM    5  C6  UNL     1      -2.375  -0.469   0.067  1.00  0.00     0.027 A 
HETATM    6  C7  UNL     1      -0.962  -0.423   0.176  1.00  0.00     0.033 A 
HETATM    7  C8  UNL     1      -2.909  -1.007  -1.121  1.00  0.00     0.194 C 
HETATM    8  O2  UNL     1      -2.231  -1.879  -1.739  1.00  0.00    -0.287 OA
HETATM    9  C9  UNL     1      -4.027  -0.453  -1.771  1.00  0.00     0.026 A 
HETATM   10  C10 UNL     1      -3.986  -0.399  -3.187  1.00  0.00     0.016 A 
HETATM   11  C11 UNL     1      -4.964   0.271  -3.916  1.00  0.00     0.001 A 
HETATM   12  C12 UNL     1      -6.011   0.897  -3.257  1.00  0.00     0.001 A 
HETATM   13  C13 UNL     1      -6.116   0.799  -1.873  1.00  0.00     0.013 A 
HETATM   14  C14 UNL     1      -5.162   0.085  -1.103  1.00  0.00    -0.011 A 
HETATM   15  C15 UNL     1      -5.482  -0.244   0.238  1.00  0.00    -0.014 A 
HETATM   16  C16 UNL     1      -6.838  -0.537   0.545  1.00  0.00     0.013 A 
HETATM   17  C17 UNL     1      -7.249  -0.836   1.840  1.00  0.00     0.001 A 
HETATM   18  C18 UNL     1      -6.324  -0.860   2.868  1.00  0.00     0.001 A 
HETATM   19  C19 UNL     1      -4.987  -0.584   2.606  1.00  0.00     0.013 A 
HETATM   20  C20 UNL     1      -4.530  -0.266   1.298  1.00  0.00    -0.014 A 
ENDROOT
BRANCH   1  21
HETATM   21  C1  UNL     1       1.153   0.312   1.324  1.00  0.00     0.256 C 
HETATM   22  O1  UNL     1       1.695   0.304   2.464  1.00  0.00    -0.267 OA
HETATM   23  N1  UNL     1       1.969   0.389   0.139  1.00  0.00    -0.323 N 
HETATM   24  H12 UNL     1       1.518   0.287  -0.796  1.00  0.00     0.169 HD
BRANCH  23  25
HETATM   25  C21 UNL     1       3.399   0.533   0.159  1.00  0.00     0.037 A 
HETATM   26  C22 UNL     1       4.169  -0.133  -0.804  1.00  0.00     0.059 A 
HETATM   27  C23 UNL     1       5.567  -0.010  -0.823  1.00  0.00     0.045 A 
HETATM   28  C24 UNL     1       6.198   0.846   0.101  1.00  0.00    -0.022 A 
HETATM   29  N3  UNL     1       6.313  -0.711  -1.832  1.00  0.00    -0.308 N 
HETATM   30  C25 UNL     1       5.425   1.528   1.055  1.00  0.00     0.012 A 
HETATM   31  C27 UNL     1       7.683   1.041   0.062  1.00  0.00     0.144 C 
HETATM   32  C26 UNL     1       4.037   1.377   1.081  1.00  0.00     0.030 A 
HETATM   33  C28 UNL     1       8.350  -0.235   0.455  1.00  0.00     0.229 C 
HETATM   34  O3  UNL     1       9.021  -0.280   1.521  1.00  0.00    -0.273 OA
HETATM   35  N2  UNL     1       8.240  -1.408  -0.358  1.00  0.00    -0.279 N 
HETATM   36  C29 UNL     1       7.508  -1.477  -1.591  1.00  0.00     0.327 C 
HETATM   37  H18 UNL     1       8.844  -2.224  -0.109  1.00  0.00     0.173 HD
HETATM   38  O4  UNL     1       7.901  -2.277  -2.481  1.00  0.00    -0.247 OA
HETATM   39  H19 UNL     1       5.839  -0.866  -2.751  1.00  0.00     0.170 HD
ENDBRANCH  23  25
ENDBRANCH   1  21
TORSDOF 2
