REMARK  4 active torsions:
REMARK  status: ('A' for Active; 'I' for Inactive)
REMARK    1  A    between atoms: C9_10  and  C10_11 
REMARK    2  A    between atoms: C11_13  and  C12_14 
REMARK    3  A    between atoms: C16_18  and  C17_19 
REMARK    4  A    between atoms: C21_23  and  O1_24 
ROOT
HETATM    1  C1  UNL     1      -8.388   0.348   1.699  1.00  0.00     0.070 C 
HETATM    2  C2  UNL     1      -7.057  -0.264   1.397  1.00  0.00     0.031 A 
HETATM    3  C3  UNL     1      -6.422  -0.012   0.182  1.00  0.00     0.039 A 
HETATM    4  C4  UNL     1      -5.158  -0.564  -0.090  1.00  0.00    -0.015 A 
HETATM    5  C5  UNL     1      -4.534  -1.391   0.896  1.00  0.00    -0.029 A 
HETATM    6  C6  UNL     1      -5.230  -1.598   2.104  1.00  0.00     0.124 A 
HETATM    7  N1  UNL     1      -6.446  -1.039   2.325  1.00  0.00    -0.265 NA
HETATM    8  C7  UNL     1      -3.223  -2.179   0.782  1.00  0.00     0.042 C 
HETATM    9  C8  UNL     1      -2.300  -2.020  -0.444  1.00  0.00     0.020 C 
HETATM   10  C9  UNL     1      -1.276  -0.848  -0.371  1.00  0.00     0.072 C 
HETATM   11  C27 UNL     1      -1.781   0.374   0.399  1.00  0.00    -0.037 A 
HETATM   12  C28 UNL     1      -1.270   0.715   1.671  1.00  0.00     0.009 A 
HETATM   13  C29 UNL     1      -1.748   1.836   2.354  1.00  0.00     0.001 A 
HETATM   14  C30 UNL     1      -2.750   2.628   1.793  1.00  0.00     0.001 A 
HETATM   15  C31 UNL     1      -3.284   2.297   0.547  1.00  0.00     0.013 A 
HETATM   16  C32 UNL     1      -2.809   1.177  -0.149  1.00  0.00    -0.018 A 
HETATM   17  C33 UNL     1      -3.476   0.777  -1.399  1.00  0.00    -0.014 A 
HETATM   18  C34 UNL     1      -2.993   1.252  -2.626  1.00  0.00     0.013 A 
HETATM   19  C35 UNL     1      -3.569   0.817  -3.822  1.00  0.00     0.001 A 
HETATM   20  C36 UNL     1      -4.632  -0.087  -3.799  1.00  0.00     0.001 A 
HETATM   21  C37 UNL     1      -5.124  -0.559  -2.580  1.00  0.00     0.013 A 
HETATM   22  C38 UNL     1      -4.543  -0.145  -1.370  1.00  0.00    -0.014 A 
ENDROOT
BRANCH  10  23
HETATM   23  C10 UNL     1       0.123  -1.277   0.039  1.00  0.00     0.043 A 
HETATM   24  N2  UNL     1       1.185  -0.658  -0.548  1.00  0.00    -0.252 NA
HETATM   25  C11 UNL     1       2.479  -0.942  -0.231  1.00  0.00     0.067 A 
HETATM   26  C24 UNL     1       2.740  -1.919   0.745  1.00  0.00     0.032 A 
HETATM   27  C25 UNL     1       1.674  -2.558   1.380  1.00  0.00     0.004 A 
HETATM   28  C26 UNL     1       0.361  -2.236   1.038  1.00  0.00     0.028 A 
BRANCH  25  29
HETATM   29  C12 UNL     1       3.570  -0.221  -0.938  1.00  0.00    -0.007 A 
HETATM   30  C13 UNL     1       3.337   0.304  -2.222  1.00  0.00     0.014 A 
HETATM   31  C14 UNL     1       4.335   1.011  -2.892  1.00  0.00     0.002 A 
HETATM   32  C15 UNL     1       5.580   1.209  -2.292  1.00  0.00     0.012 A 
HETATM   33  C16 UNL     1       5.839   0.702  -1.008  1.00  0.00    -0.025 A 
HETATM   34  C23 UNL     1       4.828  -0.011  -0.336  1.00  0.00     0.026 A 
BRANCH  33  35
HETATM   35  C17 UNL     1       7.154   0.935  -0.360  1.00  0.00    -0.023 A 
HETATM   36  C18 UNL     1       7.779   2.192  -0.446  1.00  0.00     0.012 A 
HETATM   37  C19 UNL     1       9.017   2.409   0.166  1.00  0.00     0.004 A 
HETATM   38  C20 UNL     1       9.647   1.377   0.864  1.00  0.00     0.036 A 
HETATM   39  C21 UNL     1       9.041   0.121   0.956  1.00  0.00     0.066 A 
HETATM   40  C22 UNL     1       7.796  -0.098   0.348  1.00  0.00     0.048 A 
BRANCH  39  41
HETATM   41  O1  UNL     1       9.685  -0.902   1.648  1.00  0.00    -0.361 OA
HETATM   42  H17 UNL     1       9.281  -1.827   1.726  1.00  0.00     0.217 HD
ENDBRANCH  39  41
ENDBRANCH  33  35
ENDBRANCH  25  29
ENDBRANCH  10  23
TORSDOF 4
