REMARK  2 active torsions:
REMARK  status: ('A' for Active; 'I' for Inactive)
REMARK    1  A    between atoms: C4_4  and  N1_5 
REMARK    2  A    between atoms: C25_29  and  N5_30 
ROOT
HETATM    1  N1  UNL     1      -0.494   0.099  -0.976  1.00  0.00    -0.344 N 
HETATM    2  C5  UNL     1       0.544  -0.570  -1.787  1.00  0.00     0.134 C 
HETATM    3  C6  UNL     1       1.940   0.012  -1.571  1.00  0.00     0.063 C 
HETATM    4  C7  UNL     1       2.430  -0.299  -0.185  1.00  0.00    -0.000 A 
HETATM    5  C8  UNL     1       1.935   0.204   1.019  1.00  0.00     0.109 A 
HETATM    6  N2  UNL     1       2.432  -0.477   2.076  1.00  0.00    -0.342 N 
HETATM    7  C9  UNL     1       3.240  -1.415   1.557  1.00  0.00     0.044 A 
HETATM    8  C10 UNL     1       3.950  -2.392   2.254  1.00  0.00     0.030 A 
HETATM    9  C11 UNL     1       4.696  -3.321   1.508  1.00  0.00     0.002 A 
HETATM   10  C12 UNL     1       4.707  -3.262   0.097  1.00  0.00     0.001 A 
HETATM   11  C13 UNL     1       3.976  -2.270  -0.581  1.00  0.00     0.014 A 
HETATM   12  C14 UNL     1       3.257  -1.348   0.185  1.00  0.00     0.001 A 
HETATM   13  N3  UNL     1       0.956   1.239   1.160  1.00  0.00    -0.371 N 
HETATM   14  C15 UNL     1       0.991   2.457   0.356  1.00  0.00     0.162 C 
HETATM   15  C16 UNL     1      -0.151   2.589  -0.655  1.00  0.00    -0.008 A 
HETATM   16  C17 UNL     1      -0.515   3.903  -1.083  1.00  0.00    -0.052 A 
HETATM   17  C18 UNL     1       0.185   5.139  -0.569  1.00  0.00     0.049 C 
HETATM   18  C19 UNL     1      -1.567   4.083  -1.993  1.00  0.00     0.007 A 
HETATM   19  C20 UNL     1      -2.235   2.992  -2.529  1.00  0.00     0.003 A 
HETATM   20  C21 UNL     1      -1.858   1.705  -2.177  1.00  0.00     0.030 A 
HETATM   21  C22 UNL     1      -0.817   1.475  -1.264  1.00  0.00     0.043 A 
HETATM   22  H9  UNL     1       2.209  -0.325   3.085  1.00  0.00     0.167 HD
HETATM   23  H14 UNL     1       0.484   1.308   2.089  1.00  0.00     0.161 HD
ENDROOT
BRANCH   1  24
HETATM   24  C4  UNL     1      -1.498  -0.682  -0.273  1.00  0.00     0.060 A 
HETATM   25  C3  UNL     1      -1.924  -0.254   0.994  1.00  0.00     0.042 A 
HETATM   26  C2  UNL     1      -2.843  -0.997   1.746  1.00  0.00    -0.014 A 
HETATM   27  C1  UNL     1      -3.243  -0.524   3.117  1.00  0.00     0.052 C 
HETATM   28  C25 UNL     1      -3.373  -2.174   1.187  1.00  0.00     0.127 A 
HETATM   29  N4  UNL     1      -3.021  -2.529  -0.075  1.00  0.00    -0.234 NA
HETATM   30  C23 UNL     1      -2.137  -1.823  -0.831  1.00  0.00     0.059 A 
HETATM   31  C24 UNL     1      -1.942  -2.279  -2.249  1.00  0.00     0.073 C 
BRANCH  28  32
HETATM   32  N5  UNL     1      -4.305  -2.994   1.899  1.00  0.00    -0.384 N 
HETATM   33  H26 UNL     1      -4.691  -3.853   1.447  1.00  0.00     0.157 HD
HETATM   34  H27 UNL     1      -4.616  -2.773   2.870  1.00  0.00     0.157 HD
ENDBRANCH  28  32
ENDBRANCH   1  24
TORSDOF 2
