REMARK  3 active torsions:
REMARK  status: ('A' for Active; 'I' for Inactive)
REMARK    1  A    between atoms: N1_1  and  C1_2 
REMARK    2  A    between atoms: C8_10  and  C9_11 
REMARK    3  A    between atoms: C9_11  and  C10_13 
ROOT
HETATM    1  C1  UNL     1       4.606   1.571   1.959  1.00  0.00     0.028 A 
HETATM    2  C2  UNL     1       3.667   0.754   2.596  1.00  0.00     0.030 A 
HETATM    3  C3  UNL     1       2.888  -0.134   1.850  1.00  0.00     0.017 A 
HETATM    4  C4  UNL     1       3.029  -0.223   0.448  1.00  0.00     0.008 A 
HETATM    5  C5  UNL     1       3.902   0.677  -0.186  1.00  0.00     0.082 A 
HETATM    6  C6  UNL     1       4.719   1.530   0.565  1.00  0.00     0.066 A 
HETATM    7  O1  UNL     1       3.894   0.810  -1.564  1.00  0.00    -0.349 OA
HETATM    8  C7  UNL     1       2.687   1.194  -2.197  1.00  0.00     0.193 C 
HETATM    9  C8  UNL     1       1.817  -0.020  -2.544  1.00  0.00     0.118 C 
HETATM   10  C23 UNL     1       1.863  -1.259  -1.643  1.00  0.00    -0.033 A 
HETATM   11  C24 UNL     1       1.300  -2.420  -2.221  1.00  0.00     0.012 A 
HETATM   12  C25 UNL     1       1.243  -3.627  -1.534  1.00  0.00     0.043 A 
HETATM   13  C26 UNL     1       1.759  -3.718  -0.251  1.00  0.00     0.117 A 
HETATM   14  F1  UNL     1       1.726  -4.901   0.410  1.00  0.00    -0.206 F 
HETATM   15  C27 UNL     1       2.325  -2.598   0.352  1.00  0.00     0.055 A 
HETATM   16  C28 UNL     1       2.373  -1.344  -0.303  1.00  0.00    -0.013 A 
ENDROOT
BRANCH   9  17
HETATM   17  C9  UNL     1       0.391   0.419  -2.822  1.00  0.00     0.170 C 
HETATM   18  O2  UNL     1       0.098   0.768  -3.999  1.00  0.00    -0.291 OA
BRANCH  17  19
HETATM   19  C10 UNL     1      -0.673   0.446  -1.783  1.00  0.00     0.011 A 
HETATM   20  C11 UNL     1      -0.381   0.703  -0.439  1.00  0.00     0.016 A 
HETATM   21  C12 UNL     1      -1.388   0.705   0.526  1.00  0.00     0.014 A 
HETATM   22  C13 UNL     1      -2.735   0.455   0.176  1.00  0.00    -0.008 A 
HETATM   23  C14 UNL     1      -3.037   0.212  -1.190  1.00  0.00     0.044 A 
HETATM   24  C22 UNL     1      -3.792   0.441   1.132  1.00  0.00     0.002 A 
HETATM   25  C15 UNL     1      -2.006   0.214  -2.151  1.00  0.00     0.033 A 
HETATM   26  C16 UNL     1      -4.368  -0.033  -1.572  1.00  0.00     0.257 A 
HETATM   27  O3  UNL     1      -4.660  -0.250  -2.781  1.00  0.00    -0.267 OA
HETATM   28  N2  UNL     1      -5.358  -0.037  -0.644  1.00  0.00    -0.322 N 
HETATM   29  C17 UNL     1      -5.115   0.188   0.677  1.00  0.00     0.046 A 
HETATM   30  H12 UNL     1      -6.337  -0.222  -0.964  1.00  0.00     0.169 HD
HETATM   31  C18 UNL     1      -6.183   0.167   1.589  1.00  0.00     0.030 A 
HETATM   32  C19 UNL     1      -5.960   0.392   2.945  1.00  0.00     0.002 A 
HETATM   33  C20 UNL     1      -4.670   0.639   3.407  1.00  0.00     0.001 A 
HETATM   34  C21 UNL     1      -3.594   0.664   2.517  1.00  0.00     0.014 A 
ENDBRANCH  17  19
ENDBRANCH   9  17
BRANCH   1  35
HETATM   35  N1  UNL     1       5.420   2.465   2.722  1.00  0.00    -0.399 N 
HETATM   36  H1  UNL     1       6.117   3.087   2.254  1.00  0.00     0.156 HD
HETATM   37  H2  UNL     1       5.334   2.511   3.762  1.00  0.00     0.156 HD
ENDBRANCH   1  35
TORSDOF 3
