REMARK  2 active torsions:
REMARK  status: ('A' for Active; 'I' for Inactive)
REMARK    1  A    between atoms: C10_12  and  C11_13 
REMARK       I    between atoms: C11_13  and  N2_15 
REMARK    2  A    between atoms: N2_15  and  C12_16 
ROOT
HETATM    1  C12 UNL     1      -0.096   0.266   0.339  1.00  0.00     0.037 A 
HETATM    2  C13 UNL     1      -0.625  -0.835  -0.349  1.00  0.00     0.030 A 
HETATM    3  C14 UNL     1      -2.001  -1.062  -0.363  1.00  0.00     0.017 A 
HETATM    4  C15 UNL     1      -2.886  -0.201   0.314  1.00  0.00     0.002 A 
HETATM    5  C16 UNL     1      -2.352   0.923   1.002  1.00  0.00     0.048 A 
HETATM    6  C17 UNL     1      -0.963   1.120   1.029  1.00  0.00     0.060 A 
HETATM    7  N3  UNL     1      -3.182   1.860   1.711  1.00  0.00    -0.326 N 
HETATM    8  C18 UNL     1      -4.390   2.407   1.168  1.00  0.00     0.226 C 
HETATM    9  O2  UNL     1      -4.988   3.328   1.786  1.00  0.00    -0.273 OA
HETATM   10  C19 UNL     1      -4.961   1.884  -0.109  1.00  0.00     0.142 C 
HETATM   11  C20 UNL     1      -5.335   0.445   0.094  1.00  0.00    -0.038 A 
HETATM   12  C21 UNL     1      -6.692   0.078   0.103  1.00  0.00     0.008 A 
HETATM   13  C22 UNL     1      -7.065  -1.247   0.331  1.00  0.00     0.001 A 
HETATM   14  C23 UNL     1      -6.091  -2.216   0.562  1.00  0.00     0.001 A 
HETATM   15  C24 UNL     1      -4.740  -1.866   0.563  1.00  0.00     0.013 A 
HETATM   16  C25 UNL     1      -4.340  -0.535   0.328  1.00  0.00    -0.017 A 
HETATM   17  H12 UNL     1      -2.789   2.319   2.564  1.00  0.00     0.169 HD
ENDROOT
BRANCH   1  18
HETATM   18  N2  UNL     1       1.321   0.501   0.399  1.00  0.00    -0.323 N 
HETATM   19  C11 UNL     1       2.223   0.261  -0.692  1.00  0.00     0.259 C 
HETATM   20  O1  UNL     1       1.787  -0.045  -1.835  1.00  0.00    -0.267 OA
HETATM   21  H8  UNL     1       1.707   0.936   1.267  1.00  0.00     0.169 HD
BRANCH  19  22
HETATM   22  C10 UNL     1       3.680   0.403  -0.492  1.00  0.00     0.067 A 
HETATM   23  C2  UNL     1       4.250   1.684  -0.303  1.00  0.00     0.047 A 
HETATM   24  C1  UNL     1       3.414   2.933  -0.299  1.00  0.00     0.071 C 
HETATM   25  N1  UNL     1       5.590   1.807  -0.114  1.00  0.00    -0.264 NA
HETATM   26  C3  UNL     1       6.427   0.740  -0.112  1.00  0.00     0.129 A 
HETATM   27  C4  UNL     1       5.923  -0.549  -0.307  1.00  0.00    -0.004 A 
HETATM   28  C5  UNL     1       6.786  -1.656  -0.306  1.00  0.00     0.056 A 
HETATM   29  C9  UNL     1       4.531  -0.729  -0.498  1.00  0.00    -0.007 A 
HETATM   30  C6  UNL     1       6.276  -2.943  -0.489  1.00  0.00     0.117 A 
HETATM   31  F1  UNL     1       7.113  -4.010  -0.486  1.00  0.00    -0.206 F 
HETATM   32  C7  UNL     1       4.906  -3.134  -0.670  1.00  0.00     0.043 A 
HETATM   33  C8  UNL     1       4.036  -2.040  -0.673  1.00  0.00     0.016 A 
ENDBRANCH  19  22
ENDBRANCH   1  18
TORSDOF 2
