REMARK  0 active torsions:
REMARK  status: ('A' for Active; 'I' for Inactive)
ROOT
HETATM    1  O1  UNL     1      -3.835   0.375   1.350  1.00  0.00    -0.297 OA
HETATM    2  C1  UNL     1      -3.035   0.018   0.501  1.00  0.00     0.144 A 
HETATM    3  C2  UNL     1      -3.022  -0.936  -0.679  1.00  0.00     0.105 A 
HETATM    4  C3  UNL     1      -1.597  -0.627  -1.046  1.00  0.00     0.112 A 
HETATM    5  N1  UNL     1      -0.711  -1.787  -0.908  1.00  0.00    -0.351 N 
HETATM    6  C4  UNL     1       0.720  -1.688  -0.988  1.00  0.00     0.253 C 
HETATM    7  O2  UNL     1       1.351  -2.490  -1.726  1.00  0.00    -0.268 OA
HETATM    8  C5  UNL     1       1.483  -0.801  -0.089  1.00  0.00     0.047 A 
HETATM    9  C6  UNL     1       2.170  -1.385   0.988  1.00  0.00     0.018 A 
HETATM   10  C7  UNL     1       2.851  -0.588   1.911  1.00  0.00     0.001 A 
HETATM   11  C8  UNL     1       2.851   0.800   1.770  1.00  0.00     0.001 A 
HETATM   12  C9  UNL     1       2.184   1.394   0.696  1.00  0.00     0.018 A 
HETATM   13  C10 UNL     1       1.513   0.603  -0.249  1.00  0.00     0.048 A 
HETATM   14  C11 UNL     1       0.851   1.273  -1.378  1.00  0.00     0.259 C 
HETATM   15  O3  UNL     1       1.326   1.154  -2.539  1.00  0.00    -0.267 OA
HETATM   16  N2  UNL     1      -0.292   2.106  -1.159  1.00  0.00    -0.293 N 
HETATM   17  C12 UNL     1      -1.350   1.748  -0.257  1.00  0.00     0.237 C 
HETATM   18  O4  UNL     1      -2.098   2.654   0.200  1.00  0.00    -0.272 OA
HETATM   19  C13 UNL     1      -1.583   0.306   0.143  1.00  0.00     0.170 A 
HETATM   20  H4  UNL     1      -1.118  -2.726  -1.118  1.00  0.00     0.163 HD
HETATM   21  H9  UNL     1      -0.399   2.970  -1.736  1.00  0.00     0.172 HD
ENDROOT
TORSDOF 0
