REMARK  5 active torsions:
REMARK  status: ('A' for Active; 'I' for Inactive)
REMARK    1  A    between atoms: C2_2  and  N1_3 
REMARK    2  A    between atoms: N1_3  and  C3_4 
REMARK       I    between atoms: N1_3  and  C7_10 
REMARK    3  A    between atoms: C3_4  and  C4_5 
REMARK    4  A    between atoms: C4_5  and  N2_6 
REMARK       I    between atoms: N2_6  and  C5_7 
REMARK    5  A    between atoms: C7_10  and  C8_12 
ROOT
HETATM    1  C8  UNL     1       0.142  -1.100   0.408  1.00  0.00     0.032 A 
HETATM    2  C9  UNL     1      -0.636  -2.037  -0.277  1.00  0.00     0.020 A 
HETATM    3  C10 UNL     1      -1.970  -1.765  -0.562  1.00  0.00     0.039 A 
HETATM    4  C11 UNL     1      -2.557  -0.561  -0.164  1.00  0.00     0.081 A 
HETATM    5  C12 UNL     1      -1.780   0.432   0.502  1.00  0.00    -0.019 A 
HETATM    6  C13 UNL     1      -0.435   0.114   0.811  1.00  0.00     0.027 A 
HETATM    7  C14 UNL     1      -2.387   1.801   0.875  1.00  0.00     0.018 C 
HETATM    8  C15 UNL     1      -1.351   2.842   1.348  1.00  0.00     0.015 C 
HETATM    9  C16 UNL     1      -3.215   2.401  -0.308  1.00  0.00     0.013 C 
HETATM   10  C17 UNL     1      -4.751   2.363  -0.118  1.00  0.00     0.029 C 
HETATM   11  C18 UNL     1      -5.286   1.187   0.658  1.00  0.00    -0.002 C 
HETATM   12  C19 UNL     1      -4.854  -0.060   0.483  1.00  0.00     0.138 C 
HETATM   13  O3  UNL     1      -3.903  -0.365  -0.486  1.00  0.00    -0.323 OA
ENDROOT
BRANCH   1  14
HETATM   14  C7  UNL     1       1.557  -1.388   0.722  1.00  0.00     0.253 C 
HETATM   15  N1  UNL     1       2.413  -2.076  -0.214  1.00  0.00    -0.347 N 
HETATM   16  O2  UNL     1       2.022  -1.023   1.836  1.00  0.00    -0.267 OA
BRANCH  15  17
HETATM   17  C2  UNL     1       3.483  -2.947   0.291  1.00  0.00     0.121 C 
HETATM   18  C1  UNL     1       2.894  -4.219   0.891  1.00  0.00     0.026 C 
ENDBRANCH  15  17
BRANCH  15  19
HETATM   19  C3  UNL     1       2.374  -1.743  -1.647  1.00  0.00     0.145 C 
BRANCH  19  20
HETATM   20  C4  UNL     1       3.262  -0.535  -1.951  1.00  0.00     0.142 C 
BRANCH  20  21
HETATM   21  N2  UNL     1       2.727   0.671  -1.317  1.00  0.00    -0.360 N 
HETATM   22  C5  UNL     1       3.416   1.383  -0.280  1.00  0.00     0.213 C 
HETATM   23  C6  UNL     1       2.797   2.599   0.331  1.00  0.00     0.117 C 
HETATM   24  O1  UNL     1       4.523   0.968   0.157  1.00  0.00    -0.274 OA
HETATM   25  H10 UNL     1       1.785   1.008  -1.618  1.00  0.00     0.162 HD
ENDBRANCH  20  21
ENDBRANCH  19  20
ENDBRANCH  15  19
ENDBRANCH   1  14
TORSDOF 5
