REMARK  2 active torsions:
REMARK  status: ('A' for Active; 'I' for Inactive)
REMARK    1  A    between atoms: C1_2  and  C2_3 
REMARK    2  A    between atoms: C1_2  and  C22_24 
ROOT
HETATM    1  C2  UNL     1       1.732  -0.860  -0.259  1.00  0.00     0.016 A 
HETATM    2  C3  UNL     1       1.641   0.280   0.551  1.00  0.00     0.016 A 
HETATM    3  C4  UNL     1       0.520   1.106   0.484  1.00  0.00     0.014 A 
HETATM    4  C5  UNL     1      -0.547   0.805  -0.377  1.00  0.00    -0.011 A 
HETATM    5  C6  UNL     1      -0.480  -0.362  -1.183  1.00  0.00     0.022 A 
HETATM    6  C7  UNL     1       0.665  -1.175  -1.114  1.00  0.00     0.031 A 
HETATM    7  C8  UNL     1      -1.551  -0.759  -2.133  1.00  0.00     0.164 C 
HETATM    8  O2  UNL     1      -1.220  -1.123  -3.295  1.00  0.00    -0.292 OA
HETATM    9  C9  UNL     1      -3.013  -0.770  -1.780  1.00  0.00     0.123 C 
HETATM   10  C10 UNL     1      -3.248  -1.007  -0.306  1.00  0.00    -0.040 A 
HETATM   11  C11 UNL     1      -3.468  -2.311   0.167  1.00  0.00     0.008 A 
HETATM   12  C12 UNL     1      -3.704  -2.541   1.525  1.00  0.00     0.001 A 
HETATM   13  C13 UNL     1      -3.719  -1.473   2.424  1.00  0.00     0.001 A 
HETATM   14  C14 UNL     1      -3.484  -0.173   1.971  1.00  0.00     0.013 A 
HETATM   15  C15 UNL     1      -3.232   0.067   0.612  1.00  0.00    -0.018 A 
HETATM   16  C16 UNL     1      -2.936   1.438   0.152  1.00  0.00    -0.014 A 
HETATM   17  C17 UNL     1      -3.937   2.419   0.226  1.00  0.00     0.013 A 
HETATM   18  C18 UNL     1      -3.704   3.704  -0.268  1.00  0.00     0.001 A 
HETATM   19  C19 UNL     1      -2.469   4.022  -0.836  1.00  0.00     0.001 A 
HETATM   20  C20 UNL     1      -1.460   3.058  -0.903  1.00  0.00     0.013 A 
HETATM   21  C21 UNL     1      -1.683   1.758  -0.419  1.00  0.00    -0.014 A 
ENDROOT
BRANCH   1  22
HETATM   22  C1  UNL     1       2.914  -1.753  -0.187  1.00  0.00     0.192 C 
HETATM   23  O1  UNL     1       2.750  -2.993  -0.353  1.00  0.00    -0.287 OA
BRANCH  22  24
HETATM   24  C22 UNL     1       4.281  -1.241   0.074  1.00  0.00     0.015 A 
HETATM   25  C23 UNL     1       5.214  -2.043   0.757  1.00  0.00     0.015 A 
HETATM   26  C24 UNL     1       6.511  -1.575   0.993  1.00  0.00     0.001 A 
HETATM   27  C25 UNL     1       6.892  -0.310   0.542  1.00  0.00     0.000 A 
HETATM   28  C26 UNL     1       5.980   0.489  -0.152  1.00  0.00     0.001 A 
HETATM   29  C27 UNL     1       4.682   0.026  -0.390  1.00  0.00     0.015 A 
ENDBRANCH  22  24
ENDBRANCH   1  22
TORSDOF 2
