REMARK  2 active torsions:
REMARK  status: ('A' for Active; 'I' for Inactive)
REMARK    1  A    between atoms: C9_9  and  N1_10 
REMARK       I    between atoms: N1_10  and  C10_11 
REMARK    2  A    between atoms: C10_11  and  C11_13 
ROOT
HETATM    1  C1  UNL     1      -2.746   3.460   2.901  1.00  0.00     0.048 C 
HETATM    2  C2  UNL     1      -2.972   2.352   1.913  1.00  0.00    -0.061 A 
HETATM    3  C3  UNL     1      -4.102   1.530   2.035  1.00  0.00     0.007 A 
HETATM    4  C4  UNL     1      -4.336   0.509   1.109  1.00  0.00     0.013 A 
HETATM    5  C5  UNL     1      -3.445   0.302   0.046  1.00  0.00    -0.019 A 
HETATM    6  C6  UNL     1      -2.324   1.145  -0.104  1.00  0.00    -0.044 A 
HETATM    7  C7  UNL     1      -2.091   2.163   0.836  1.00  0.00     0.014 A 
HETATM    8  C8  UNL     1      -1.369   0.944  -1.260  1.00  0.00     0.069 C 
HETATM    9  C9  UNL     1      -0.221  -0.059  -0.965  1.00  0.00     0.123 C 
HETATM   10  C19 UNL     1      -0.517  -1.122   0.112  1.00  0.00    -0.024 A 
HETATM   11  C20 UNL     1       0.396  -1.323   1.179  1.00  0.00     0.010 A 
HETATM   12  C21 UNL     1       0.217  -2.353   2.103  1.00  0.00     0.001 A 
HETATM   13  C22 UNL     1      -0.878  -3.205   1.997  1.00  0.00     0.001 A 
HETATM   14  C23 UNL     1      -1.801  -3.028   0.971  1.00  0.00     0.013 A 
HETATM   15  C24 UNL     1      -1.634  -2.006   0.021  1.00  0.00    -0.017 A 
HETATM   16  C25 UNL     1      -2.706  -1.861  -0.990  1.00  0.00    -0.014 A 
HETATM   17  C26 UNL     1      -2.892  -2.873  -1.944  1.00  0.00     0.013 A 
HETATM   18  C27 UNL     1      -3.991  -2.834  -2.813  1.00  0.00     0.001 A 
HETATM   19  C28 UNL     1      -4.921  -1.797  -2.725  1.00  0.00     0.001 A 
HETATM   20  C29 UNL     1      -4.757  -0.794  -1.765  1.00  0.00     0.013 A 
HETATM   21  C30 UNL     1      -3.658  -0.819  -0.891  1.00  0.00    -0.014 A 
ENDROOT
BRANCH   9  22
HETATM   22  N1  UNL     1       0.990   0.711  -0.644  1.00  0.00    -0.348 N 
HETATM   23  C10 UNL     1       2.302   0.335  -1.095  1.00  0.00     0.254 C 
HETATM   24  O1  UNL     1       2.424  -0.497  -2.035  1.00  0.00    -0.268 OA
HETATM   25  H10 UNL     1       0.894   1.462   0.075  1.00  0.00     0.163 HD
BRANCH  23  26
HETATM   26  C11 UNL     1       3.513   0.912  -0.463  1.00  0.00     0.059 A 
HETATM   27  C12 UNL     1       3.552   1.949   0.474  1.00  0.00     0.106 A 
HETATM   28  N2  UNL     1       4.824   2.194   0.859  1.00  0.00    -0.364 N 
HETATM   29  C13 UNL     1       5.594   1.328   0.181  1.00  0.00     0.043 A 
HETATM   30  H12 UNL     1       5.139   2.915   1.545  1.00  0.00     0.165 HD
HETATM   31  C14 UNL     1       6.980   1.199   0.263  1.00  0.00     0.030 A 
HETATM   32  C18 UNL     1       4.836   0.528  -0.639  1.00  0.00     0.008 A 
HETATM   33  C15 UNL     1       7.597   0.214  -0.527  1.00  0.00     0.002 A 
HETATM   34  C16 UNL     1       6.825  -0.613  -1.371  1.00  0.00     0.001 A 
HETATM   35  C17 UNL     1       5.426  -0.463  -1.432  1.00  0.00     0.015 A 
ENDBRANCH  23  26
ENDBRANCH   9  22
TORSDOF 2
