REMARK  9 active torsions:
REMARK  status: ('A' for Active; 'I' for Inactive)
REMARK       I    between atoms: C1_2  and  N1_3 
REMARK    1  A    between atoms: C1_2  and  C27_31 
REMARK       I    between atoms: N1_3  and  C2_4 
REMARK    2  A    between atoms: C2_4  and  C3_6 
REMARK    3  A    between atoms: C6_9  and  C26_30 
REMARK    4  A    between atoms: C7_10  and  C9_13 
REMARK    5  A    between atoms: C14_18  and  C15_19 
REMARK    6  A    between atoms: C20_24  and  C21_25 
REMARK    7  A    between atoms: C29_33  and  C46_50 
REMARK    8  A    between atoms: C34_38  and  C35_39 
REMARK    9  A    between atoms: C40_44  and  C41_45 
ROOT
HETATM    1  O1  UNL     1      -0.902  -1.123   0.810  1.00  0.00    -0.267 OA
HETATM    2  C1  UNL     1      -1.946  -1.379   0.148  1.00  0.00     0.259 C 
HETATM    3  N1  UNL     1      -1.957  -2.371  -0.889  1.00  0.00    -0.289 N 
HETATM    4  C2  UNL     1      -0.813  -3.052  -1.421  1.00  0.00     0.261 C 
HETATM    5  O2  UNL     1      -1.003  -3.980  -2.251  1.00  0.00    -0.267 OA
HETATM    6  H1  UNL     1      -2.894  -2.681  -1.244  1.00  0.00     0.172 HD
ENDROOT
BRANCH   4   7
HETATM    7  C3  UNL     1       0.580  -2.673  -1.113  1.00  0.00     0.071 A 
HETATM    8  C4  UNL     1       1.467  -3.669  -0.688  1.00  0.00     0.021 A 
HETATM    9  C5  UNL     1       2.837  -3.423  -0.660  1.00  0.00     0.014 A 
HETATM   10  C6  UNL     1       3.351  -2.184  -1.073  1.00  0.00    -0.011 A 
HETATM   11  C7  UNL     1       2.462  -1.147  -1.445  1.00  0.00     0.026 A 
HETATM   12  C8  UNL     1       1.075  -1.403  -1.459  1.00  0.00     0.144 A 
HETATM   13  F1  UNL     1       0.213  -0.442  -1.909  1.00  0.00    -0.204 F 
BRANCH  10  14
HETATM   14  C26 UNL     1       4.807  -2.080  -1.319  1.00  0.00    -0.014 A 
HETATM   15  C21 UNL     1       5.631  -1.192  -0.589  1.00  0.00    -0.014 A 
HETATM   16  C22 UNL     1       7.014  -1.158  -0.859  1.00  0.00     0.013 A 
HETATM   17  C23 UNL     1       7.576  -2.000  -1.830  1.00  0.00     0.001 A 
HETATM   18  C24 UNL     1       6.764  -2.889  -2.539  1.00  0.00     0.001 A 
HETATM   19  C25 UNL     1       5.391  -2.925  -2.285  1.00  0.00     0.013 A 
BRANCH  15  20
HETATM   20  C20 UNL     1       5.073  -0.322   0.478  1.00  0.00    -0.014 A 
HETATM   21  C15 UNL     1       4.159   0.714   0.176  1.00  0.00    -0.014 A 
HETATM   22  C16 UNL     1       3.725   1.567   1.210  1.00  0.00     0.013 A 
HETATM   23  C17 UNL     1       4.197   1.403   2.516  1.00  0.00     0.001 A 
HETATM   24  C18 UNL     1       5.107   0.391   2.805  1.00  0.00     0.001 A 
HETATM   25  C19 UNL     1       5.541  -0.471   1.795  1.00  0.00     0.013 A 
BRANCH  21  26
HETATM   26  C14 UNL     1       3.768   1.021  -1.220  1.00  0.00    -0.014 A 
HETATM   27  C9  UNL     1       2.968   0.144  -1.988  1.00  0.00    -0.011 A 
HETATM   28  C10 UNL     1       2.620   0.507  -3.299  1.00  0.00     0.013 A 
HETATM   29  C11 UNL     1       3.036   1.728  -3.835  1.00  0.00     0.001 A 
HETATM   30  C12 UNL     1       3.825   2.591  -3.081  1.00  0.00     0.001 A 
HETATM   31  C13 UNL     1       4.193   2.239  -1.779  1.00  0.00     0.013 A 
ENDBRANCH  21  26
ENDBRANCH  15  20
ENDBRANCH  10  14
ENDBRANCH   4   7
BRANCH   2  32
HETATM   32  C27 UNL     1      -3.203  -0.701   0.480  1.00  0.00     0.044 C 
HETATM   33  C28 UNL     1      -4.069  -1.254   1.323  1.00  0.00     0.030 C 
HETATM   34  C29 UNL     1      -5.412  -0.670   1.422  1.00  0.00    -0.024 C 
HETATM   35  C30 UNL     1      -6.318  -0.829   0.432  1.00  0.00     0.012 C 
HETATM   36  C31 UNL     1      -5.959  -1.334  -0.914  1.00  0.00     0.001 C 
HETATM   37  C32 UNL     1      -5.103  -0.679  -1.723  1.00  0.00     0.001 C 
HETATM   38  C33 UNL     1      -4.387   0.544  -1.290  1.00  0.00     0.013 C 
HETATM   39  C34 UNL     1      -3.588   0.548  -0.205  1.00  0.00    -0.009 C 
BRANCH  34  40
HETATM   40  C46 UNL     1      -5.674   0.368   2.433  1.00  0.00    -0.015 C 
HETATM   41  C41 UNL     1      -5.067   1.678   2.426  1.00  0.00    -0.014 C 
HETATM   42  C42 UNL     1      -5.756   2.700   3.140  1.00  0.00     0.013 C 
HETATM   43  C43 UNL     1      -6.837   2.412   3.963  1.00  0.00     0.001 C 
HETATM   44  C44 UNL     1      -7.309   1.109   4.077  1.00  0.00     0.001 C 
HETATM   45  C45 UNL     1      -6.754   0.102   3.301  1.00  0.00     0.013 C 
BRANCH  41  46
HETATM   46  C40 UNL     1      -3.729   2.093   1.807  1.00  0.00    -0.014 C 
HETATM   47  C35 UNL     1      -3.244   1.785   0.490  1.00  0.00    -0.014 C 
HETATM   48  C36 UNL     1      -2.161   2.501  -0.048  1.00  0.00     0.013 C 
HETATM   49  C37 UNL     1      -1.504   3.468   0.707  1.00  0.00     0.001 C 
HETATM   50  C38 UNL     1      -1.855   3.663   2.032  1.00  0.00     0.001 C 
HETATM   51  C39 UNL     1      -2.944   2.983   2.574  1.00  0.00     0.013 C 
ENDBRANCH  41  46
ENDBRANCH  34  40
ENDBRANCH   2  32
TORSDOF 9
