REMARK  4 active torsions:
REMARK  status: ('A' for Active; 'I' for Inactive)
REMARK       I    between atoms: C1_2  and  N1_3 
REMARK       I    between atoms: C1_2  and  N3_19 
REMARK    1  A    between atoms: N1_3  and  C2_4 
REMARK    2  A    between atoms: N3_19  and  C16_20 
REMARK    3  A    between atoms: N4_26  and  C22_27 
REMARK    4  A    between atoms: C22_27  and  C23_28 
ROOT
HETATM    1  O1  UNL     1      -1.719   0.564   0.866  1.00  0.00    -0.247 OA
HETATM    2  C1  UNL     1      -1.622   0.312  -0.366  1.00  0.00     0.321 C 
HETATM    3  N1  UNL     1      -2.801   0.027  -1.136  1.00  0.00    -0.334 N 
HETATM    4  N3  UNL     1      -0.344   0.360  -1.023  1.00  0.00    -0.309 N 
HETATM    5  H1  UNL     1      -2.710   0.012  -2.178  1.00  0.00     0.165 HD
HETATM    6  H14 UNL     1      -0.347   0.353  -2.068  1.00  0.00     0.170 HD
ENDROOT
BRANCH   4   7
HETATM    7  C16 UNL     1       0.925   0.538  -0.362  1.00  0.00     0.037 A 
HETATM    8  C17 UNL     1       1.980   1.138  -1.066  1.00  0.00     0.044 A 
HETATM    9  C18 UNL     1       3.250   1.300  -0.476  1.00  0.00     0.003 A 
HETATM   10  C19 UNL     1       3.444   0.893   0.862  1.00  0.00     0.042 A 
HETATM   11  C35 UNL     1       4.410   1.878  -1.219  1.00  0.00    -0.016 A 
HETATM   12  C20 UNL     1       2.393   0.267   1.554  1.00  0.00     0.032 A 
HETATM   13  N4  UNL     1       4.727   1.131   1.489  1.00  0.00    -0.372 N 
HETATM   14  C21 UNL     1       1.155   0.071   0.942  1.00  0.00     0.032 A 
HETATM   15  C29 UNL     1       5.527   2.269   1.014  1.00  0.00     0.162 C 
HETATM   16  C30 UNL     1       5.543   2.308  -0.490  1.00  0.00    -0.029 A 
HETATM   17  C31 UNL     1       6.653   2.841  -1.165  1.00  0.00     0.010 A 
HETATM   18  C32 UNL     1       6.660   2.916  -2.559  1.00  0.00     0.001 A 
HETATM   19  C33 UNL     1       5.559   2.467  -3.288  1.00  0.00     0.001 A 
HETATM   20  C34 UNL     1       4.443   1.945  -2.628  1.00  0.00     0.013 A 
BRANCH  13  21
HETATM   21  C22 UNL     1       5.268   0.229   2.518  1.00  0.00     0.162 C 
BRANCH  21  22
HETATM   22  C23 UNL     1       5.502  -1.142   1.942  1.00  0.00    -0.040 A 
HETATM   23  C24 UNL     1       6.470  -1.325   0.939  1.00  0.00     0.009 A 
HETATM   24  C25 UNL     1       6.684  -2.593   0.389  1.00  0.00     0.001 A 
HETATM   25  C26 UNL     1       5.932  -3.686   0.833  1.00  0.00     0.000 A 
HETATM   26  C27 UNL     1       4.966  -3.511   1.828  1.00  0.00     0.001 A 
HETATM   27  C28 UNL     1       4.751  -2.245   2.384  1.00  0.00     0.009 A 
ENDBRANCH  21  22
ENDBRANCH  13  21
ENDBRANCH   4   7
BRANCH   3  28
HETATM   28  C2  UNL     1      -4.135  -0.145  -0.544  1.00  0.00     0.126 C 
HETATM   29  C3  UNL     1      -5.096   0.888  -1.139  1.00  0.00     0.071 C 
HETATM   30  C4  UNL     1      -6.327   1.180  -0.301  1.00  0.00    -0.029 A 
HETATM   31  C5  UNL     1      -6.927   2.441  -0.502  1.00  0.00     0.009 A 
HETATM   32  C9  UNL     1      -6.931   0.275   0.626  1.00  0.00     0.039 A 
HETATM   33  C6  UNL     1      -8.055   2.828   0.216  1.00  0.00     0.001 A 
HETATM   34  C7  UNL     1      -8.619   1.961   1.145  1.00  0.00     0.002 A 
HETATM   35  C8  UNL     1      -8.063   0.700   1.349  1.00  0.00     0.030 A 
HETATM   36  N2  UNL     1      -6.447  -1.061   0.889  1.00  0.00    -0.355 N 
HETATM   37  C10 UNL     1      -5.847  -1.922  -0.087  1.00  0.00     0.041 A 
HETATM   38  H9  UNL     1      -6.833  -1.544   1.736  1.00  0.00     0.166 HD
HETATM   39  C11 UNL     1      -6.380  -3.207  -0.279  1.00  0.00     0.030 A 
HETATM   40  C15 UNL     1      -4.693  -1.531  -0.792  1.00  0.00    -0.008 A 
HETATM   41  C12 UNL     1      -5.810  -4.081  -1.207  1.00  0.00     0.002 A 
HETATM   42  C13 UNL     1      -4.695  -3.686  -1.940  1.00  0.00     0.001 A 
HETATM   43  C14 UNL     1      -4.137  -2.421  -1.738  1.00  0.00     0.011 A 
ENDBRANCH   3  28
TORSDOF 4
