REMARK  3 active torsions:
REMARK  status: ('A' for Active; 'I' for Inactive)
REMARK    1  A    between atoms: C2_2  and  C3_3 
REMARK    2  A    between atoms: C2_2  and  N1_9 
REMARK       I    between atoms: N1_9  and  C10_11 
REMARK       I    between atoms: C10_11  and  N2_13 
REMARK    3  A    between atoms: C13_17  and  C14_18 
ROOT
HETATM    1  N1  UNL     1      -1.834   1.040  -0.021  1.00  0.00    -0.330 N 
HETATM    2  C9  UNL     1      -2.221   2.209   0.780  1.00  0.00     0.155 C 
HETATM    3  C10 UNL     1      -0.633   0.332   0.353  1.00  0.00     0.320 C 
HETATM    4  O1  UNL     1      -0.201   0.412   1.535  1.00  0.00    -0.247 OA
HETATM    5  N2  UNL     1       0.076  -0.479  -0.600  1.00  0.00    -0.332 N 
HETATM    6  C11 UNL     1       0.514   0.101  -1.874  1.00  0.00     0.153 C 
HETATM    7  C12 UNL     1       1.998   0.467  -1.823  1.00  0.00     0.189 C 
HETATM    8  O2  UNL     1       2.798  -0.693  -1.692  1.00  0.00    -0.373 OA
HETATM    9  C13 UNL     1       3.059  -0.949  -0.327  1.00  0.00     0.093 A 
HETATM   10  C20 UNL     1       3.113  -2.446  -0.025  1.00  0.00     0.053 A 
HETATM   11  C21 UNL     1       1.960  -1.606   0.512  1.00  0.00     0.046 A 
HETATM   12  C22 UNL     1       0.608  -1.783  -0.193  1.00  0.00     0.135 C 
ENDROOT
BRANCH   1  13
HETATM   13  C2  UNL     1      -2.763   0.452  -1.008  1.00  0.00     0.117 C 
HETATM   14  C1  UNL     1      -3.143   1.456  -2.110  1.00  0.00     0.037 C 
BRANCH  13  15
HETATM   15  C3  UNL     1      -3.952  -0.174  -0.300  1.00  0.00    -0.036 A 
HETATM   16  C4  UNL     1      -3.836  -1.489   0.189  1.00  0.00     0.009 A 
HETATM   17  C5  UNL     1      -4.890  -2.086   0.885  1.00  0.00     0.001 A 
HETATM   18  C6  UNL     1      -6.069  -1.374   1.115  1.00  0.00     0.000 A 
HETATM   19  C7  UNL     1      -6.193  -0.062   0.655  1.00  0.00     0.001 A 
HETATM   20  C8  UNL     1      -5.141   0.541  -0.042  1.00  0.00     0.009 A 
ENDBRANCH  13  15
ENDBRANCH   1  13
BRANCH   9  21
HETATM   21  C14 UNL     1       4.149  -0.152   0.343  1.00  0.00    -0.023 A 
HETATM   22  C15 UNL     1       5.491  -0.360  -0.011  1.00  0.00     0.010 A 
HETATM   23  C16 UNL     1       6.502   0.398   0.588  1.00  0.00     0.001 A 
HETATM   24  C17 UNL     1       6.179   1.373   1.536  1.00  0.00     0.000 A 
HETATM   25  C18 UNL     1       4.843   1.596   1.882  1.00  0.00     0.001 A 
HETATM   26  C19 UNL     1       3.829   0.840   1.285  1.00  0.00     0.010 A 
ENDBRANCH   9  21
TORSDOF 3
