REMARK  2 active torsions:
REMARK  status: ('A' for Active; 'I' for Inactive)
REMARK       I    between atoms: C1_2  and  N1_3 
REMARK    1  A    between atoms: C1_2  and  C17_21 
REMARK       I    between atoms: N1_3  and  C2_4 
REMARK    2  A    between atoms: C2_4  and  C3_6 
ROOT
HETATM    1  C17 UNL     1      -1.183   0.133   0.112  1.00  0.00     0.071 A 
HETATM    2  C18 UNL     1      -2.072  -0.944   0.233  1.00  0.00     0.033 A 
HETATM    3  C19 UNL     1      -3.097  -1.143  -0.705  1.00  0.00    -0.008 A 
HETATM    4  C20 UNL     1      -3.241  -0.236  -1.779  1.00  0.00     0.046 A 
HETATM    5  C21 UNL     1      -2.347   0.838  -1.897  1.00  0.00     0.061 A 
HETATM    6  C22 UNL     1      -1.328   1.029  -0.960  1.00  0.00     0.133 A 
HETATM    7  F1  UNL     1      -0.518   2.110  -1.079  1.00  0.00    -0.205 F 
HETATM    8  C23 UNL     1      -4.283  -0.404  -2.814  1.00  0.00     0.257 C 
HETATM    9  O4  UNL     1      -3.933  -0.458  -4.025  1.00  0.00    -0.267 OA
HETATM   10  N2  UNL     1      -5.678  -0.418  -2.490  1.00  0.00    -0.322 N 
HETATM   11  C24 UNL     1      -6.165  -0.079  -1.187  1.00  0.00     0.046 A 
HETATM   12  C25 UNL     1      -6.881   1.114  -1.013  1.00  0.00     0.030 A 
HETATM   13  C26 UNL     1      -7.390   1.455   0.244  1.00  0.00     0.002 A 
HETATM   14  C27 UNL     1      -7.202   0.598   1.331  1.00  0.00     0.001 A 
HETATM   15  C28 UNL     1      -6.511  -0.605   1.162  1.00  0.00     0.014 A 
HETATM   16  C29 UNL     1      -5.991  -0.953  -0.095  1.00  0.00     0.002 A 
HETATM   17  C30 UNL     1      -5.323  -2.259  -0.272  1.00  0.00    -0.013 A 
HETATM   18  C31 UNL     1      -6.070  -3.437  -0.091  1.00  0.00     0.013 A 
HETATM   19  C32 UNL     1      -5.465  -4.688  -0.220  1.00  0.00     0.001 A 
HETATM   20  C33 UNL     1      -4.107  -4.777  -0.527  1.00  0.00     0.001 A 
HETATM   21  C34 UNL     1      -3.350  -3.616  -0.695  1.00  0.00     0.013 A 
HETATM   22  C35 UNL     1      -3.948  -2.350  -0.579  1.00  0.00    -0.014 A 
HETATM   23  H13 UNL     1      -6.357  -0.386  -3.282  1.00  0.00     0.169 HD
ENDROOT
BRANCH   1  24
HETATM   24  C1  UNL     1      -0.088   0.277   1.089  1.00  0.00     0.261 C 
HETATM   25  O1  UNL     1      -0.341   0.135   2.319  1.00  0.00    -0.267 OA
HETATM   26  N1  UNL     1       1.256   0.531   0.646  1.00  0.00    -0.289 N 
HETATM   27  C2  UNL     1       2.413   0.362   1.482  1.00  0.00     0.261 C 
HETATM   28  H1  UNL     1       1.412   0.721  -0.370  1.00  0.00     0.172 HD
HETATM   29  O2  UNL     1       2.283  -0.004   2.681  1.00  0.00    -0.267 OA
BRANCH  27  30
HETATM   30  C3  UNL     1       3.772   0.585   0.930  1.00  0.00     0.067 C 
HETATM   31  C4  UNL     1       4.812  -0.174   1.376  1.00  0.00     0.032 C 
HETATM   32  C5  UNL     1       6.301  -0.099   1.054  1.00  0.00    -0.022 A 
HETATM   33  C6  UNL     1       7.105  -1.076   1.677  1.00  0.00     0.012 A 
HETATM   34  C10 UNL     1       6.962   0.882   0.237  1.00  0.00     0.008 A 
HETATM   35  C7  UNL     1       8.493  -1.078   1.530  1.00  0.00     0.001 A 
HETATM   36  C8  UNL     1       9.121  -0.100   0.765  1.00  0.00     0.001 A 
HETATM   37  C9  UNL     1       8.363   0.875   0.120  1.00  0.00     0.015 A 
HETATM   38  C11 UNL     1       6.181   1.848  -0.540  1.00  0.00     0.087 C 
HETATM   39  C12 UNL     1       6.448   3.159  -0.615  1.00  0.00     0.038 C 
HETATM   40  O3  UNL     1       4.969   1.411  -0.993  1.00  0.00    -0.309 OA
HETATM   41  C13 UNL     1       5.390   4.137  -1.007  1.00  0.00     0.003 C 
HETATM   42  C14 UNL     1       4.063   4.000  -0.746  1.00  0.00     0.003 C 
HETATM   43  C15 UNL     1       3.449   2.856  -0.013  1.00  0.00     0.038 C 
HETATM   44  C16 UNL     1       3.975   1.628  -0.086  1.00  0.00     0.091 C 
ENDBRANCH  27  30
ENDBRANCH   1  24
TORSDOF 2
