REMARK  4 active torsions:
REMARK  status: ('A' for Active; 'I' for Inactive)
REMARK    1  A    between atoms: C2_2  and  O1_3 
REMARK    2  A    between atoms: O1_3  and  C3_4 
REMARK    3  A    between atoms: C8_9  and  C9_10 
REMARK       I    between atoms: C9_10  and  N1_12 
REMARK    4  A    between atoms: C17_21  and  C18_22 
ROOT
HETATM    1  C9  UNL     1       0.422   0.236   0.294  1.00  0.00     0.261 C 
HETATM    2  O2  UNL     1       0.398   0.320   1.553  1.00  0.00    -0.267 OA
HETATM    3  N1  UNL     1      -0.705   0.727  -0.461  1.00  0.00    -0.311 N 
HETATM    4  C10 UNL     1      -0.530   1.382  -1.766  1.00  0.00     0.162 C 
HETATM    5  C11 UNL     1      -1.001   2.836  -1.717  1.00  0.00     0.290 C 
HETATM    6  N2  UNL     1      -0.769   3.375  -0.371  1.00  0.00     0.089 N 
HETATM    7  C12 UNL     1      -1.979   3.317   0.463  1.00  0.00     0.310 C 
HETATM    8  C13 UNL     1      -2.609   1.936   0.599  1.00  0.00    -0.003 A 
HETATM    9  C14 UNL     1      -3.853   1.874   1.249  1.00  0.00     0.011 A 
HETATM   10  C15 UNL     1      -4.495   0.655   1.458  1.00  0.00     0.002 A 
HETATM   11  C16 UNL     1      -3.909  -0.529   1.019  1.00  0.00     0.014 A 
HETATM   12  C17 UNL     1      -2.672  -0.503   0.366  1.00  0.00     0.002 A 
HETATM   13  C24 UNL     1      -2.005   0.726   0.157  1.00  0.00     0.056 A 
HETATM   14  H14 UNL     1      -0.501   4.383  -0.462  1.00  0.00     0.316 HD
ENDROOT
BRANCH   1  15
HETATM   15  C8  UNL     1       1.590  -0.407  -0.363  1.00  0.00     0.065 A 
HETATM   16  C3  UNL     1       2.887  -0.293   0.188  1.00  0.00     0.084 A 
HETATM   17  C4  UNL     1       3.964  -0.954  -0.438  1.00  0.00     0.038 A 
HETATM   18  C5  UNL     1       3.755  -1.714  -1.590  1.00  0.00     0.003 A 
HETATM   19  C6  UNL     1       2.477  -1.824  -2.132  1.00  0.00     0.001 A 
HETATM   20  C7  UNL     1       1.401  -1.177  -1.525  1.00  0.00     0.020 A 
BRANCH  16  21
HETATM   21  O1  UNL     1       3.075   0.490   1.339  1.00  0.00    -0.350 OA
BRANCH  21  22
HETATM   22  C2  UNL     1       4.326   0.689   1.991  1.00  0.00     0.171 C 
HETATM   23  C1  UNL     1       4.129   1.590   3.199  1.00  0.00     0.034 C 
ENDBRANCH  21  22
ENDBRANCH  16  21
ENDBRANCH   1  15
BRANCH  12  24
HETATM   24  C18 UNL     1      -2.099  -1.770  -0.120  1.00  0.00    -0.024 A 
HETATM   25  C19 UNL     1      -1.438  -2.633   0.768  1.00  0.00     0.012 A 
HETATM   26  C20 UNL     1      -0.880  -3.826   0.299  1.00  0.00     0.001 A 
HETATM   27  C21 UNL     1      -0.988  -4.167  -1.052  1.00  0.00     0.000 A 
HETATM   28  C22 UNL     1      -1.656  -3.316  -1.938  1.00  0.00     0.001 A 
HETATM   29  C23 UNL     1      -2.210  -2.118  -1.474  1.00  0.00     0.012 A 
ENDBRANCH  12  24
TORSDOF 4
