REMARK  2 active torsions:
REMARK  status: ('A' for Active; 'I' for Inactive)
REMARK    1  A    between atoms: C1_2  and  C2_3 
REMARK    2  A    between atoms: C1_2  and  C21_23 
ROOT
HETATM    1  O1  UNL     1      -0.568   1.673  -3.025  1.00  0.00    -0.287 OA
HETATM    2  C1  UNL     1      -0.530   0.763  -2.153  1.00  0.00     0.192 C 
ENDROOT
BRANCH   2   3
HETATM    3  C2  UNL     1      -1.802   0.280  -1.591  1.00  0.00     0.016 C 
HETATM    4  C3  UNL     1      -2.345  -0.932  -2.005  1.00  0.00     0.016 C 
HETATM    5  C4  UNL     1      -3.517  -1.401  -1.420  1.00  0.00     0.014 C 
HETATM    6  C5  UNL     1      -4.191  -0.669  -0.409  1.00  0.00    -0.011 C 
HETATM    7  C6  UNL     1      -3.720   0.638  -0.101  1.00  0.00     0.027 C 
HETATM    8  C20 UNL     1      -5.133  -1.350   0.405  1.00  0.00    -0.014 A 
HETATM    9  C7  UNL     1      -2.494   1.066  -0.669  1.00  0.00     0.031 C 
HETATM   10  C8  UNL     1      -4.408   1.567   0.706  1.00  0.00     0.194 C 
HETATM   11  O2  UNL     1      -3.735   2.473   1.280  1.00  0.00    -0.287 OA
HETATM   12  C9  UNL     1      -5.810   1.681   0.717  1.00  0.00     0.026 A 
HETATM   13  C10 UNL     1      -6.345   2.992   0.781  1.00  0.00     0.016 A 
HETATM   14  C14 UNL     1      -6.711   0.582   0.657  1.00  0.00    -0.011 A 
HETATM   15  C11 UNL     1      -7.712   3.226   0.683  1.00  0.00     0.001 A 
HETATM   16  C12 UNL     1      -8.586   2.160   0.523  1.00  0.00     0.001 A 
HETATM   17  C13 UNL     1      -8.097   0.859   0.519  1.00  0.00     0.013 A 
HETATM   18  C15 UNL     1      -6.313  -0.749   0.934  1.00  0.00    -0.014 A 
HETATM   19  C16 UNL     1      -7.167  -1.545   1.745  1.00  0.00     0.013 A 
HETATM   20  C17 UNL     1      -6.892  -2.880   2.013  1.00  0.00     0.001 A 
HETATM   21  C18 UNL     1      -5.754  -3.465   1.491  1.00  0.00     0.001 A 
HETATM   22  C19 UNL     1      -4.887  -2.716   0.704  1.00  0.00     0.013 A 
ENDBRANCH   2   3
BRANCH   2  23
HETATM   23  C21 UNL     1       0.779   0.250  -1.670  1.00  0.00     0.015 A 
HETATM   24  C22 UNL     1       0.863  -0.907  -0.882  1.00  0.00     0.016 A 
HETATM   25  C23 UNL     1       2.096  -1.354  -0.411  1.00  0.00     0.014 A 
HETATM   26  C24 UNL     1       3.292  -0.662  -0.702  1.00  0.00    -0.019 A 
HETATM   27  C25 UNL     1       3.205   0.525  -1.462  1.00  0.00    -0.046 A 
HETATM   28  C40 UNL     1       4.583  -1.239  -0.200  1.00  0.00    -0.014 C 
HETATM   29  C26 UNL     1       1.958   0.959  -1.949  1.00  0.00     0.023 A 
HETATM   30  C27 UNL     1       4.379   1.439  -1.582  1.00  0.00     0.044 C 
HETATM   31  C28 UNL     1       4.615   2.111  -0.219  1.00  0.00     0.044 C 
HETATM   32  C29 UNL     1       5.970   1.747   0.294  1.00  0.00    -0.047 A 
HETATM   33  C30 UNL     1       6.991   2.716   0.212  1.00  0.00     0.008 A 
HETATM   34  C34 UNL     1       6.272   0.438   0.758  1.00  0.00    -0.019 A 
HETATM   35  C31 UNL     1       8.299   2.411   0.576  1.00  0.00     0.001 A 
HETATM   36  C32 UNL     1       8.617   1.126   0.999  1.00  0.00     0.001 A 
HETATM   37  C33 UNL     1       7.622   0.152   1.080  1.00  0.00     0.013 A 
HETATM   38  C35 UNL     1       5.261  -0.672   0.920  1.00  0.00    -0.014 C 
HETATM   39  C36 UNL     1       5.486  -1.522   2.026  1.00  0.00     0.013 C 
HETATM   40  C37 UNL     1       5.445  -2.911   1.874  1.00  0.00     0.001 C 
HETATM   41  C38 UNL     1       5.139  -3.462   0.634  1.00  0.00     0.001 C 
HETATM   42  C39 UNL     1       4.704  -2.632  -0.400  1.00  0.00     0.013 C 
ENDBRANCH   2  23
TORSDOF 2
