REMARK  2 active torsions:
REMARK  status: ('A' for Active; 'I' for Inactive)
REMARK    1  A    between atoms: C1_2  and  C2_3 
REMARK    2  A    between atoms: C1_2  and  C22_25 
ROOT
HETATM    1  C2  UNL     1       1.015   0.313  -1.305  1.00  0.00     0.015 A 
HETATM    2  C3  UNL     1       1.372   1.260  -0.337  1.00  0.00     0.016 A 
HETATM    3  C4  UNL     1       2.362   0.961   0.603  1.00  0.00     0.014 A 
HETATM    4  C5  UNL     1       3.006  -0.284   0.581  1.00  0.00    -0.018 A 
HETATM    5  C6  UNL     1       2.668  -1.238  -0.410  1.00  0.00    -0.037 A 
HETATM    6  C7  UNL     1       1.667  -0.926  -1.344  1.00  0.00     0.024 A 
HETATM    7  C8  UNL     1       3.362  -2.584  -0.478  1.00  0.00     0.142 C 
HETATM    8  C9  UNL     1       4.842  -2.426  -0.665  1.00  0.00     0.226 C 
HETATM    9  O2  UNL     1       5.640  -3.184  -0.050  1.00  0.00    -0.273 OA
HETATM   10  N1  UNL     1       5.351  -1.450  -1.578  1.00  0.00    -0.326 N 
HETATM   11  C10 UNL     1       5.803  -0.121  -1.225  1.00  0.00     0.045 A 
HETATM   12  C11 UNL     1       6.215   0.725  -2.275  1.00  0.00     0.030 A 
HETATM   13  C12 UNL     1       6.687   2.015  -2.021  1.00  0.00     0.002 A 
HETATM   14  C13 UNL     1       6.759   2.488  -0.713  1.00  0.00     0.001 A 
HETATM   15  C14 UNL     1       6.348   1.679   0.345  1.00  0.00     0.014 A 
HETATM   16  C15 UNL     1       5.860   0.378   0.114  1.00  0.00     0.002 A 
HETATM   17  C16 UNL     1       5.416  -0.376   1.311  1.00  0.00    -0.013 A 
HETATM   18  C17 UNL     1       6.373  -0.777   2.258  1.00  0.00     0.013 A 
HETATM   19  C18 UNL     1       5.980  -1.378   3.457  1.00  0.00     0.001 A 
HETATM   20  C19 UNL     1       4.626  -1.564   3.732  1.00  0.00     0.001 A 
HETATM   21  C20 UNL     1       3.663  -1.175   2.800  1.00  0.00     0.013 A 
HETATM   22  C21 UNL     1       4.045  -0.582   1.587  1.00  0.00    -0.014 A 
HETATM   23  H6  UNL     1       5.317  -1.713  -2.588  1.00  0.00     0.169 HD
ENDROOT
BRANCH   1  24
HETATM   24  C1  UNL     1      -0.036   0.609  -2.292  1.00  0.00     0.192 C 
HETATM   25  O1  UNL     1       0.319   0.956  -3.451  1.00  0.00    -0.287 OA
BRANCH  24  26
HETATM   26  C22 UNL     1      -1.479   0.438  -1.975  1.00  0.00     0.016 C 
HETATM   27  C23 UNL     1      -2.417   0.377  -3.008  1.00  0.00     0.016 C 
HETATM   28  C24 UNL     1      -3.760   0.147  -2.728  1.00  0.00     0.014 C 
HETATM   29  C25 UNL     1      -4.227   0.002  -1.400  1.00  0.00    -0.011 C 
HETATM   30  C26 UNL     1      -3.304   0.201  -0.336  1.00  0.00     0.027 C 
HETATM   31  C40 UNL     1      -5.517  -0.545  -1.193  1.00  0.00    -0.014 A 
HETATM   32  C27 UNL     1      -1.929   0.342  -0.649  1.00  0.00     0.031 C 
HETATM   33  C28 UNL     1      -3.670   0.317   1.021  1.00  0.00     0.194 C 
HETATM   34  O3  UNL     1      -2.815   0.006   1.902  1.00  0.00    -0.287 OA
HETATM   35  C29 UNL     1      -4.838   0.986   1.438  1.00  0.00     0.026 A 
HETATM   36  C30 UNL     1      -4.735   1.805   2.591  1.00  0.00     0.016 A 
HETATM   37  C34 UNL     1      -6.091   0.914   0.764  1.00  0.00    -0.011 A 
HETATM   38  C31 UNL     1      -5.788   2.615   3.003  1.00  0.00     0.001 A 
HETATM   39  C32 UNL     1      -6.976   2.623   2.287  1.00  0.00     0.001 A 
HETATM   40  C33 UNL     1      -7.131   1.777   1.191  1.00  0.00     0.013 A 
HETATM   41  C35 UNL     1      -6.402  -0.114  -0.160  1.00  0.00    -0.014 A 
HETATM   42  C36 UNL     1      -7.685  -0.721  -0.078  1.00  0.00     0.013 A 
HETATM   43  C37 UNL     1      -8.090  -1.703  -0.978  1.00  0.00     0.001 A 
HETATM   44  C38 UNL     1      -7.232  -2.115  -1.983  1.00  0.00     0.001 A 
HETATM   45  C39 UNL     1      -5.966  -1.552  -2.089  1.00  0.00     0.013 A 
ENDBRANCH  24  26
ENDBRANCH   1  24
TORSDOF 2
