REMARK  6 active torsions:
REMARK  status: ('A' for Active; 'I' for Inactive)
REMARK       I    between atoms: C1_2  and  N1_3 
REMARK    1  A    between atoms: C1_2  and  C23_26 
REMARK       I    between atoms: N1_3  and  C2_4 
REMARK    2  A    between atoms: C2_4  and  C3_6 
REMARK    3  A    between atoms: C25_28  and  C46_50 
REMARK    4  A    between atoms: C26_29  and  C29_33 
REMARK    5  A    between atoms: C34_38  and  C35_39 
REMARK    6  A    between atoms: C40_44  and  C41_45 
ROOT
HETATM    1  O1  UNL     1       0.986   0.821   2.227  1.00  0.00    -0.267 OA
HETATM    2  C1  UNL     1       0.527   0.867   1.050  1.00  0.00     0.261 C 
HETATM    3  N1  UNL     1      -0.890   0.745   0.832  1.00  0.00    -0.289 N 
HETATM    4  C2  UNL     1      -1.798   0.400   1.854  1.00  0.00     0.258 C 
HETATM    5  O2  UNL     1      -1.459   0.414   3.077  1.00  0.00    -0.267 OA
HETATM    6  H1  UNL     1      -1.227   0.861  -0.131  1.00  0.00     0.172 HD
ENDROOT
BRANCH   2   7
HETATM    7  C23 UNL     1       1.505   0.960  -0.037  1.00  0.00     0.071 C 
HETATM    8  C24 UNL     1       2.704   1.611   0.303  1.00  0.00     0.033 C 
HETATM    9  C25 UNL     1       3.903   0.888   0.253  1.00  0.00    -0.013 C 
HETATM   10  C26 UNL     1       3.905  -0.314  -0.494  1.00  0.00    -0.011 C 
HETATM   11  C27 UNL     1       2.795  -0.657  -1.309  1.00  0.00     0.056 C 
HETATM   12  C28 UNL     1       1.583  -0.080  -0.993  1.00  0.00     0.133 C 
HETATM   13  F1  UNL     1       0.457  -0.800  -1.251  1.00  0.00    -0.205 F 
BRANCH   9  14
HETATM   14  C46 UNL     1       4.900   1.199   1.327  1.00  0.00    -0.014 A 
HETATM   15  C41 UNL     1       6.305   1.021   1.190  1.00  0.00    -0.014 A 
HETATM   16  C42 UNL     1       7.116   1.204   2.336  1.00  0.00     0.013 A 
HETATM   17  C43 UNL     1       6.556   1.568   3.570  1.00  0.00     0.001 A 
HETATM   18  C44 UNL     1       5.225   1.809   3.674  1.00  0.00     0.001 A 
HETATM   19  C45 UNL     1       4.399   1.615   2.590  1.00  0.00     0.013 A 
BRANCH  15  20
HETATM   20  C40 UNL     1       6.995   0.851  -0.113  1.00  0.00    -0.014 C 
HETATM   21  C35 UNL     1       6.813  -0.247  -0.996  1.00  0.00    -0.014 C 
HETATM   22  C36 UNL     1       7.481  -0.277  -2.231  1.00  0.00     0.013 C 
HETATM   23  C37 UNL     1       8.498   0.627  -2.484  1.00  0.00     0.001 C 
HETATM   24  C38 UNL     1       8.856   1.600  -1.519  1.00  0.00     0.001 C 
HETATM   25  C39 UNL     1       8.092   1.715  -0.352  1.00  0.00     0.013 C 
BRANCH  21  26
HETATM   26  C34 UNL     1       6.116  -1.485  -0.572  1.00  0.00    -0.014 C 
HETATM   27  C29 UNL     1       4.783  -1.440  -0.124  1.00  0.00    -0.014 C 
HETATM   28  C30 UNL     1       4.161  -2.618   0.341  1.00  0.00     0.013 C 
HETATM   29  C31 UNL     1       4.865  -3.828   0.303  1.00  0.00     0.001 C 
HETATM   30  C32 UNL     1       6.166  -3.901  -0.235  1.00  0.00     0.001 C 
HETATM   31  C33 UNL     1       6.767  -2.720  -0.704  1.00  0.00     0.013 C 
ENDBRANCH  21  26
ENDBRANCH  15  20
ENDBRANCH   9  14
ENDBRANCH   2   7
BRANCH   4  32
HETATM   32  C3  UNL     1      -3.243   0.270   1.570  1.00  0.00     0.033 C 
HETATM   33  C4  UNL     1      -4.168   1.041   2.287  1.00  0.00     0.018 C 
HETATM   34  C5  UNL     1      -5.489   1.079   1.876  1.00  0.00     0.014 C 
HETATM   35  C6  UNL     1      -5.900   0.409   0.697  1.00  0.00    -0.014 C 
HETATM   36  C7  UNL     1      -4.920  -0.271  -0.117  1.00  0.00    -0.013 C 
HETATM   37  C22 UNL     1      -7.365   0.058   0.681  1.00  0.00    -0.015 A 
HETATM   38  C8  UNL     1      -3.677  -0.512   0.505  1.00  0.00     0.030 C 
HETATM   39  C9  UNL     1      -5.126  -0.767  -1.542  1.00  0.00    -0.015 C 
HETATM   40  C10 UNL     1      -4.155  -1.612  -2.142  1.00  0.00     0.013 C 
HETATM   41  C14 UNL     1      -6.181  -0.348  -2.369  1.00  0.00    -0.025 C 
HETATM   42  C11 UNL     1      -4.418  -2.289  -3.335  1.00  0.00     0.001 C 
HETATM   43  C12 UNL     1      -5.576  -2.003  -4.040  1.00  0.00     0.001 C 
HETATM   44  C13 UNL     1      -6.386  -0.963  -3.624  1.00  0.00     0.012 C 
HETATM   45  C15 UNL     1      -6.762   0.990  -2.241  1.00  0.00     0.013 C 
HETATM   46  C16 UNL     1      -7.781   1.295  -1.468  1.00  0.00     0.013 C 
HETATM   47  C17 UNL     1      -8.239   0.454  -0.363  1.00  0.00    -0.025 A 
HETATM   48  C18 UNL     1      -9.611   0.305  -0.204  1.00  0.00     0.012 A 
HETATM   49  C19 UNL     1     -10.138  -0.216   0.966  1.00  0.00     0.001 A 
HETATM   50  C20 UNL     1      -9.295  -0.524   2.029  1.00  0.00     0.001 A 
HETATM   51  C21 UNL     1      -7.920  -0.426   1.878  1.00  0.00     0.013 A 
ENDBRANCH   4  32
TORSDOF 6
