REMARK  3 active torsions:
REMARK  status: ('A' for Active; 'I' for Inactive)
REMARK    1  A    between atoms: C6_8  and  N3_9 
REMARK    2  A    between atoms: C9_12  and  C10_13 
REMARK    3  A    between atoms: C10_13  and  N4_14 
ROOT
HETATM    1  C10 UNL     1      -0.845  -0.475  -0.289  1.00  0.00     0.305 C 
ENDROOT
BRANCH   1   2
HETATM    2  C9  UNL     1       0.516  -1.044  -0.736  1.00  0.00     0.153 C 
HETATM    3  C8  UNL     1       1.294  -1.647   0.467  1.00  0.00     0.053 C 
HETATM    4  C7  UNL     1       2.799  -1.594   0.221  1.00  0.00     0.128 C 
HETATM    5  N3  UNL     1       3.179  -0.241  -0.179  1.00  0.00    -0.356 N 
HETATM    6  C23 UNL     1       2.152   0.663  -0.701  1.00  0.00     0.294 C 
HETATM    7  O2  UNL     1       1.231  -0.064  -1.489  1.00  0.00    -0.365 OA
BRANCH   5   8
HETATM    8  C6  UNL     1       4.533   0.207  -0.017  1.00  0.00     0.081 A 
HETATM    9  C2  UNL     1       4.935   0.883   1.150  1.00  0.00     0.060 A 
HETATM   10  C1  UNL     1       3.964   1.187   2.251  1.00  0.00     0.073 C 
HETATM   11  N1  UNL     1       6.226   1.292   1.275  1.00  0.00    -0.245 NA
HETATM   12  C3  UNL     1       7.138   1.054   0.300  1.00  0.00     0.233 A 
HETATM   13  N2  UNL     1       6.770   0.405  -0.834  1.00  0.00    -0.245 NA
HETATM   14  C4  UNL     1       5.491  -0.016  -1.022  1.00  0.00     0.060 A 
HETATM   15  C5  UNL     1       5.141  -0.735  -2.290  1.00  0.00     0.073 C 
ENDBRANCH   5   8
ENDBRANCH   1   2
BRANCH   1  16
HETATM   16  N4  UNL     1      -1.623   0.003  -1.462  1.00  0.00     0.100 N 
HETATM   17  C11 UNL     1      -2.248  -1.146  -2.146  1.00  0.00     0.280 C 
HETATM   18  C12 UNL     1      -3.659  -0.742  -1.744  1.00  0.00     0.052 C 
HETATM   19  C13 UNL     1      -4.253  -1.706  -0.706  1.00  0.00     0.016 C 
HETATM   20  C22 UNL     1      -2.992   0.522  -1.192  1.00  0.00     0.262 C 
HETATM   21  C14 UNL     1      -5.654  -1.275  -0.299  1.00  0.00     0.084 C 
HETATM   22  C15 UNL     1      -5.714   0.140   0.192  1.00  0.00     0.160 C 
HETATM   23  O1  UNL     1      -6.817   0.747   0.124  1.00  0.00    -0.292 OA
HETATM   24  C16 UNL     1      -4.575   0.811   0.858  1.00  0.00     0.018 C 
HETATM   25  C17 UNL     1      -4.821   1.389   2.117  1.00  0.00     0.016 C 
HETATM   26  C21 UNL     1      -3.319   1.029   0.218  1.00  0.00    -0.011 C 
HETATM   27  C18 UNL     1      -3.884   2.231   2.711  1.00  0.00     0.001 C 
HETATM   28  C19 UNL     1      -2.718   2.559   2.027  1.00  0.00     0.001 C 
HETATM   29  C20 UNL     1      -2.462   2.000   0.776  1.00  0.00     0.010 C 
ENDBRANCH   1  16
TORSDOF 3
