REMARK  1 active torsions:
REMARK  status: ('A' for Active; 'I' for Inactive)
REMARK    1  A    between atoms: C1_2  and  C2_3 
REMARK       I    between atoms: C1_2  and  N3_14 
ROOT
HETATM    1  O1  UNL     1      -0.110  -2.289  -1.586  1.00  0.00    -0.267 OA
HETATM    2  C1  UNL     1      -0.351  -1.293  -0.851  1.00  0.00     0.265 C 
HETATM    3  N3  UNL     1       0.563  -0.181  -0.817  1.00  0.00    -0.287 N 
HETATM    4  C10 UNL     1       1.629  -0.052  -1.811  1.00  0.00     0.145 C 
HETATM    5  C11 UNL     1       2.890  -0.793  -1.346  1.00  0.00     0.060 C 
HETATM    6  C12 UNL     1       3.710   0.034  -0.377  1.00  0.00    -0.050 A 
HETATM    7  C13 UNL     1       4.963   0.520  -0.795  1.00  0.00     0.007 A 
HETATM    8  C14 UNL     1       5.749   1.293   0.059  1.00  0.00     0.001 A 
HETATM    9  C15 UNL     1       5.296   1.600   1.340  1.00  0.00     0.001 A 
HETATM   10  C16 UNL     1       4.053   1.135   1.773  1.00  0.00     0.008 A 
HETATM   11  C17 UNL     1       3.250   0.345   0.930  1.00  0.00    -0.041 A 
HETATM   12  C18 UNL     1       1.893  -0.091   1.423  1.00  0.00     0.136 C 
HETATM   13  S1  UNL     1       0.599   0.888   0.596  1.00  0.00    -0.046 SA
ENDROOT
BRANCH   2  14
HETATM   14  C2  UNL     1      -1.563  -1.308  -0.009  1.00  0.00     0.057 A 
HETATM   15  C3  UNL     1      -1.668  -2.278   0.988  1.00  0.00     0.024 A 
HETATM   16  C4  UNL     1      -2.775  -2.299   1.824  1.00  0.00     0.075 A 
HETATM   17  C5  UNL     1      -3.782  -1.349   1.662  1.00  0.00     0.247 A 
HETATM   18  O2  UNL     1      -4.783  -1.392   2.431  1.00  0.00    -0.268 OA
HETATM   19  N1  UNL     1      -3.692  -0.389   0.682  1.00  0.00    -0.314 N 
HETATM   20  C6  UNL     1      -2.614  -0.374  -0.181  1.00  0.00     0.058 A 
HETATM   21  C9  UNL     1      -4.816   0.555   0.524  1.00  0.00     0.162 C 
HETATM   22  C7  UNL     1      -2.521   0.668  -1.284  1.00  0.00     0.327 C 
HETATM   23  N2  UNL     1      -3.821   1.261  -1.606  1.00  0.00     0.090 N 
HETATM   24  C8  UNL     1      -4.469   1.735  -0.385  1.00  0.00     0.290 C 
HETATM   25  H5  UNL     1      -4.424   0.534  -2.058  1.00  0.00     0.316 HD
ENDBRANCH   2  14
TORSDOF 1
