REMARK  2 active torsions:
REMARK  status: ('A' for Active; 'I' for Inactive)
REMARK    1  A    between atoms: C1_2  and  C2_3 
REMARK    2  A    between atoms: C1_2  and  C22_24 
ROOT
HETATM    1  C2  UNL     1       0.049  -0.519   1.580  1.00  0.00     0.016 A 
HETATM    2  C3  UNL     1       0.019   0.825   1.186  1.00  0.00     0.016 A 
HETATM    3  C4  UNL     1      -1.196   1.496   1.058  1.00  0.00     0.014 A 
HETATM    4  C5  UNL     1      -2.411   0.844   1.319  1.00  0.00    -0.011 A 
HETATM    5  C6  UNL     1      -2.395  -0.516   1.726  1.00  0.00     0.022 A 
HETATM    6  C7  UNL     1      -1.159  -1.172   1.868  1.00  0.00     0.031 A 
HETATM    7  C8  UNL     1      -3.624  -1.286   2.047  1.00  0.00     0.164 C 
HETATM    8  O2  UNL     1      -3.641  -1.984   3.097  1.00  0.00    -0.292 OA
HETATM    9  C9  UNL     1      -4.849  -1.295   1.174  1.00  0.00     0.123 C 
HETATM   10  C10 UNL     1      -4.522  -1.043  -0.281  1.00  0.00    -0.040 A 
HETATM   11  C11 UNL     1      -4.309  -2.129  -1.147  1.00  0.00     0.008 A 
HETATM   12  C12 UNL     1      -4.023  -1.909  -2.497  1.00  0.00     0.001 A 
HETATM   13  C13 UNL     1      -3.943  -0.607  -2.994  1.00  0.00     0.001 A 
HETATM   14  C14 UNL     1      -4.135   0.482  -2.140  1.00  0.00     0.013 A 
HETATM   15  C15 UNL     1      -4.409   0.273  -0.780  1.00  0.00    -0.018 A 
HETATM   16  C16 UNL     1      -4.559   1.431   0.123  1.00  0.00    -0.014 A 
HETATM   17  C17 UNL     1      -5.648   2.299  -0.047  1.00  0.00     0.013 A 
HETATM   18  C18 UNL     1      -5.849   3.360   0.839  1.00  0.00     0.001 A 
HETATM   19  C19 UNL     1      -4.963   3.565   1.898  1.00  0.00     0.001 A 
HETATM   20  C20 UNL     1      -3.868   2.716   2.069  1.00  0.00     0.013 A 
HETATM   21  C21 UNL     1      -3.657   1.639   1.192  1.00  0.00    -0.014 A 
ENDROOT
BRANCH   1  22
HETATM   22  C1  UNL     1       1.336  -1.238   1.736  1.00  0.00     0.192 C 
HETATM   23  O1  UNL     1       1.443  -2.103   2.648  1.00  0.00    -0.287 OA
BRANCH  22  24
HETATM   24  C22 UNL     1       2.502  -0.975   0.858  1.00  0.00     0.016 A 
HETATM   25  C23 UNL     1       2.320  -0.611  -0.502  1.00  0.00     0.016 A 
HETATM   26  C24 UNL     1       3.423  -0.377  -1.340  1.00  0.00     0.014 A 
HETATM   27  C25 UNL     1       4.700  -0.522  -0.804  1.00  0.00    -0.011 A 
HETATM   28  C26 UNL     1       4.888  -0.891   0.516  1.00  0.00     0.027 A 
HETATM   29  C34 UNL     1       6.012  -0.352  -1.429  1.00  0.00    -0.011 A 
HETATM   30  C27 UNL     1       3.811  -1.129   1.367  1.00  0.00     0.031 A 
HETATM   31  C28 UNL     1       6.323  -0.966   0.773  1.00  0.00     0.194 A 
HETATM   32  O3  UNL     1       6.879  -1.272   1.860  1.00  0.00    -0.287 OA
HETATM   33  C29 UNL     1       6.986  -0.618  -0.481  1.00  0.00     0.026 A 
HETATM   34  C30 UNL     1       8.343  -0.537  -0.788  1.00  0.00     0.016 A 
HETATM   35  C31 UNL     1       8.705  -0.174  -2.097  1.00  0.00     0.001 A 
HETATM   36  C32 UNL     1       7.714   0.098  -3.064  1.00  0.00     0.001 A 
HETATM   37  C33 UNL     1       6.350   0.010  -2.733  1.00  0.00     0.013 A 
ENDBRANCH  22  24
ENDBRANCH   1  22
TORSDOF 2
