REMARK  3 active torsions:
REMARK  status: ('A' for Active; 'I' for Inactive)
REMARK    1  A    between atoms: C2_3  and  O2_4 
REMARK    2  A    between atoms: C3_5  and  O3_6 
REMARK    3  A    between atoms: C4_7  and  C5_8 
ROOT
HETATM    1  O1  UNL     1       2.871   2.679   2.085  1.00  0.00    -0.270 OA
HETATM    2  C1  UNL     1       1.970   1.998   1.526  1.00  0.00     0.253 C 
HETATM    3  C2  UNL     1       0.752   2.693   0.951  1.00  0.00     0.239 C 
HETATM    4  C3  UNL     1      -0.544   1.829   1.010  1.00  0.00     0.165 C 
HETATM    5  C4  UNL     1      -0.587   0.610   0.014  1.00  0.00     0.059 C 
HETATM    6  C13 UNL     1       0.475  -0.528   0.256  1.00  0.00     0.058 C 
HETATM    7  C14 UNL     1       0.422  -1.040   1.715  1.00  0.00     0.030 C 
HETATM    8  C15 UNL     1       1.510  -0.243   2.448  1.00  0.00     0.129 C 
HETATM    9  N1  UNL     1       2.146   0.578   1.416  1.00  0.00    -0.314 N 
HETATM   10  C16 UNL     1       1.965  -0.109   0.137  1.00  0.00     0.238 C 
HETATM   11  C17 UNL     1       2.361   0.778  -1.111  1.00  0.00     0.065 C 
HETATM   12  C18 UNL     1       3.024  -0.046  -2.218  1.00  0.00     0.006 C 
HETATM   13  C19 UNL     1       4.305  -0.721  -1.705  1.00  0.00     0.030 C 
HETATM   14  C20 UNL     1       4.199  -1.096  -0.216  1.00  0.00     0.273 C 
HETATM   15  N2  UNL     1       2.803  -1.345   0.164  1.00  0.00     0.113 N 
HETATM   16  H24 UNL     1       2.414  -2.078  -0.476  1.00  0.00     0.319 HD
ENDROOT
BRANCH   5  17
HETATM   17  C5  UNL     1      -1.978  -0.020  -0.089  1.00  0.00    -0.050 A 
HETATM   18  C6  UNL     1      -2.861  -0.117   1.023  1.00  0.00     0.008 A 
HETATM   19  C7  UNL     1      -4.116  -0.736   0.898  1.00  0.00     0.011 A 
HETATM   20  C8  UNL     1      -4.478  -1.265  -0.337  1.00  0.00    -0.018 A 
HETATM   21  C9  UNL     1      -3.628  -1.187  -1.410  1.00  0.00     0.048 A 
HETATM   22  C12 UNL     1      -5.745  -1.975  -0.718  1.00  0.00     0.218 A 
HETATM   23  C10 UNL     1      -2.377  -0.582  -1.325  1.00  0.00     0.026 A 
HETATM   24  C11 UNL     1      -4.293  -1.832  -2.512  1.00  0.00     0.294 A 
HETATM   25  O4  UNL     1      -3.835  -1.969  -3.676  1.00  0.00    -0.259 OA
HETATM   26  O5  UNL     1      -5.536  -2.293  -2.100  1.00  0.00    -0.313 OA
ENDBRANCH   5  17
BRANCH   4  27
HETATM   27  O3  UNL     1      -1.658   2.659   0.775  1.00  0.00    -0.392 OA
HETATM   28  H4  UNL     1      -1.582   3.005  -0.153  1.00  0.00     0.210 HD
ENDBRANCH   4  27
BRANCH   3  29
HETATM   29  O2  UNL     1       0.544   3.877   1.683  1.00  0.00    -0.384 OA
HETATM   30  H2  UNL     1       0.149   4.545   1.063  1.00  0.00     0.210 HD
ENDBRANCH   3  29
TORSDOF 3
