REMARK  2 active torsions:
REMARK  status: ('A' for Active; 'I' for Inactive)
REMARK       I    between atoms: C1_2  and  N1_3 
REMARK    1  A    between atoms: C1_2  and  C22_28 
REMARK       I    between atoms: N1_3  and  C2_4 
REMARK    2  A    between atoms: C2_4  and  C3_6 
ROOT
HETATM    1  O1  UNL     1      -1.065  -2.859  -2.677  1.00  0.00    -0.266 OA
HETATM    2  C1  UNL     1      -1.245  -2.204  -1.615  1.00  0.00     0.275 C 
HETATM    3  N1  UNL     1      -0.169  -1.427  -1.062  1.00  0.00    -0.287 N 
HETATM    4  C2  UNL     1       0.978  -1.008  -1.821  1.00  0.00     0.275 C 
HETATM    5  O2  UNL     1       1.249  -1.569  -2.918  1.00  0.00    -0.266 OA
HETATM    6  H1  UNL     1      -0.206  -1.176  -0.050  1.00  0.00     0.172 HD
ENDROOT
BRANCH   2   7
HETATM    7  C22 UNL     1      -2.573  -2.257  -0.951  1.00  0.00     0.104 A 
HETATM    8  C23 UNL     1      -2.960  -1.267  -0.036  1.00  0.00     0.048 A 
HETATM    9  C24 UNL     1      -4.224  -1.314   0.571  1.00  0.00    -0.011 A 
HETATM   10  C25 UNL     1      -5.106  -2.363   0.234  1.00  0.00     0.025 A 
HETATM   11  C39 UNL     1      -4.591  -0.269   1.572  1.00  0.00    -0.014 A 
HETATM   12  C26 UNL     1      -4.692  -3.326  -0.708  1.00  0.00     0.253 A 
HETATM   13  C27 UNL     1      -6.501  -2.384   0.804  1.00  0.00     0.084 C 
HETATM   14  O5  UNL     1      -5.467  -4.260  -1.051  1.00  0.00    -0.268 OA
HETATM   15  N3  UNL     1      -3.450  -3.256  -1.262  1.00  0.00    -0.319 N 
HETATM   16  H17 UNL     1      -3.173  -3.992  -1.950  1.00  0.00     0.169 HD
HETATM   17  C28 UNL     1      -7.260  -1.226   0.219  1.00  0.00    -0.043 A 
HETATM   18  C29 UNL     1      -8.272  -1.464  -0.727  1.00  0.00     0.008 A 
HETATM   19  C33 UNL     1      -6.907   0.103   0.551  1.00  0.00    -0.018 A 
HETATM   20  C30 UNL     1      -8.943  -0.398  -1.327  1.00  0.00     0.001 A 
HETATM   21  C31 UNL     1      -8.603   0.914  -1.001  1.00  0.00     0.001 A 
HETATM   22  C32 UNL     1      -7.593   1.166  -0.070  1.00  0.00     0.013 A 
HETATM   23  C34 UNL     1      -5.849   0.400   1.561  1.00  0.00    -0.014 A 
HETATM   24  C35 UNL     1      -6.111   1.379   2.540  1.00  0.00     0.013 A 
HETATM   25  C36 UNL     1      -5.159   1.697   3.508  1.00  0.00     0.001 A 
HETATM   26  C37 UNL     1      -3.931   1.043   3.520  1.00  0.00     0.001 A 
HETATM   27  C38 UNL     1      -3.648   0.069   2.564  1.00  0.00     0.013 A 
ENDBRANCH   2   7
BRANCH   4  28
HETATM   28  C3  UNL     1       1.855   0.080  -1.326  1.00  0.00     0.104 A 
HETATM   29  C4  UNL     1       3.185   0.158  -1.758  1.00  0.00     0.048 A 
HETATM   30  C5  UNL     1       4.007   1.191  -1.301  1.00  0.00    -0.011 A 
HETATM   31  C6  UNL     1       3.498   2.157  -0.412  1.00  0.00     0.023 A 
HETATM   32  C21 UNL     1       5.427   1.196  -1.688  1.00  0.00    -0.014 A 
HETATM   33  C7  UNL     1       2.153   2.043  -0.002  1.00  0.00     0.253 A 
HETATM   34  C8  UNL     1       4.372   3.302   0.075  1.00  0.00     0.072 C 
HETATM   35  O3  UNL     1       1.655   2.883   0.797  1.00  0.00    -0.268 OA
HETATM   36  N2  UNL     1       1.375   1.025  -0.466  1.00  0.00    -0.319 N 
HETATM   37  H3  UNL     1       0.375   0.997  -0.164  1.00  0.00     0.169 HD
HETATM   38  C9  UNL     1       5.553   2.857   0.957  1.00  0.00     0.180 C 
HETATM   39  O4  UNL     1       5.220   1.729   1.766  1.00  0.00    -0.350 OA
HETATM   40  C10 UNL     1       5.428   0.357   1.509  1.00  0.00     0.079 A 
HETATM   41  C11 UNL     1       5.032  -0.508   2.539  1.00  0.00     0.037 A 
HETATM   42  C15 UNL     1       6.010  -0.206   0.328  1.00  0.00     0.008 A 
HETATM   43  C12 UNL     1       5.216  -1.887   2.441  1.00  0.00     0.003 A 
HETATM   44  C13 UNL     1       5.801  -2.431   1.302  1.00  0.00     0.001 A 
HETATM   45  C14 UNL     1       6.194  -1.600   0.256  1.00  0.00     0.015 A 
HETATM   46  C16 UNL     1       6.395   0.569  -0.875  1.00  0.00    -0.012 A 
HETATM   47  C17 UNL     1       7.745   0.606  -1.264  1.00  0.00     0.013 A 
HETATM   48  C18 UNL     1       8.128   1.275  -2.429  1.00  0.00     0.001 A 
HETATM   49  C19 UNL     1       7.167   1.901  -3.225  1.00  0.00     0.001 A 
HETATM   50  C20 UNL     1       5.820   1.862  -2.858  1.00  0.00     0.013 A 
ENDBRANCH   4  28
TORSDOF 2
