REMARK  4 active torsions:
REMARK  status: ('A' for Active; 'I' for Inactive)
REMARK    1  A    between atoms: C7_7  and  N1_8 
REMARK    2  A    between atoms: N1_8  and  C8_9 
REMARK    3  A    between atoms: C8_9  and  C9_10 
REMARK    4  A    between atoms: C14_15  and  N2_16 
REMARK       I    between atoms: N2_16  and  C15_17 
REMARK       I    between atoms: C15_17  and  N3_19 
ROOT
HETATM    1  C9  UNL     1       0.092   1.225  -1.767  1.00  0.00    -0.014 A 
HETATM    2  C10 UNL     1       0.809   1.675  -2.892  1.00  0.00     0.011 A 
HETATM    3  C11 UNL     1       0.775   0.961  -4.091  1.00  0.00     0.001 A 
HETATM    4  C12 UNL     1       0.011  -0.200  -4.192  1.00  0.00     0.002 A 
HETATM    5  C13 UNL     1      -0.728  -0.647  -3.096  1.00  0.00     0.030 A 
HETATM    6  C14 UNL     1      -0.708   0.061  -1.883  1.00  0.00     0.044 A 
ENDROOT
BRANCH   1   7
HETATM    7  C8  UNL     1       0.101   2.066  -0.506  1.00  0.00     0.160 C 
BRANCH   7   8
HETATM    8  N1  UNL     1       1.452   2.535  -0.187  1.00  0.00    -0.385 N 
HETATM    9  H6  UNL     1       1.603   3.566  -0.245  1.00  0.00     0.160 HD
BRANCH   8  10
HETATM   10  C7  UNL     1       2.554   1.668   0.164  1.00  0.00     0.034 A 
HETATM   11  C2  UNL     1       3.888   2.173   0.215  1.00  0.00    -0.035 A 
HETATM   12  C1  UNL     1       4.195   3.612  -0.105  1.00  0.00     0.050 C 
HETATM   13  C3  UNL     1       4.948   1.314   0.570  1.00  0.00     0.016 A 
HETATM   14  C4  UNL     1       4.678  -0.022   0.855  1.00  0.00    -0.051 A 
HETATM   15  C5  UNL     1       3.404  -0.513   0.803  1.00  0.00    -0.050 A 
HETATM   16  C23 UNL     1       5.661  -1.059   1.243  1.00  0.00     0.039 A 
HETATM   17  C6  UNL     1       2.328   0.305   0.466  1.00  0.00     0.037 A 
HETATM   18  C21 UNL     1       3.344  -1.951   1.148  1.00  0.00     0.039 A 
HETATM   19  C22 UNL     1       4.814  -2.336   1.403  1.00  0.00     0.009 A 
ENDBRANCH   8  10
ENDBRANCH   7   8
ENDBRANCH   1   7
BRANCH   6  20
HETATM   20  N2  UNL     1      -1.474  -0.426  -0.771  1.00  0.00    -0.308 N 
HETATM   21  C15 UNL     1      -2.887  -0.682  -0.856  1.00  0.00     0.323 C 
HETATM   22  O1  UNL     1      -3.492  -0.481  -1.945  1.00  0.00    -0.247 OA
HETATM   23  N3  UNL     1      -3.626  -1.146   0.295  1.00  0.00    -0.332 N 
HETATM   24  C16 UNL     1      -4.908  -1.840   0.093  1.00  0.00     0.129 C 
HETATM   25  C20 UNL     1      -3.109  -0.861   1.646  1.00  0.00     0.153 C 
HETATM   26  C17 UNL     1      -6.083  -0.888   0.336  1.00  0.00     0.046 C 
HETATM   27  C18 UNL     1      -6.324  -0.629   1.828  1.00  0.00     0.169 C 
HETATM   28  O2  UNL     1      -5.224   0.024   2.432  1.00  0.00    -0.389 OA
HETATM   29  C19 UNL     1      -4.187  -0.892   2.736  1.00  0.00     0.187 C 
HETATM   30  H13 UNL     1      -0.973  -0.610   0.124  1.00  0.00     0.170 HD
ENDBRANCH   6  20
TORSDOF 4
