REMARK  7 active torsions:
REMARK  status: ('A' for Active; 'I' for Inactive)
REMARK       I    between atoms: C1_2  and  N1_3 
REMARK    1  A    between atoms: C1_2  and  C23_28 
REMARK       I    between atoms: N1_3  and  C2_4 
REMARK       I    between atoms: C2_4  and  N2_6 
REMARK    2  A    between atoms: N2_6  and  C3_7 
REMARK    3  A    between atoms: C25_30  and  C50_55 
REMARK    4  A    between atoms: C26_31  and  C29_34 
REMARK    5  A    between atoms: C34_39  and  C35_40 
REMARK    6  A    between atoms: C40_45  and  C41_46 
REMARK    7  A    between atoms: C46_51  and  C47_52 
ROOT
HETATM    1  O1  UNL     1       0.175  -0.177  -2.862  1.00  0.00    -0.267 OA
HETATM    2  C1  UNL     1      -0.386  -0.207  -1.728  1.00  0.00     0.259 C 
HETATM    3  N1  UNL     1       0.398  -0.491  -0.547  1.00  0.00    -0.275 N 
HETATM    4  C2  UNL     1       1.751  -0.991  -0.618  1.00  0.00     0.327 C 
HETATM    5  O2  UNL     1       2.281  -1.302  -1.732  1.00  0.00    -0.247 OA
HETATM    6  N2  UNL     1       2.506  -1.074   0.589  1.00  0.00    -0.309 N 
HETATM    7  H1  UNL     1       0.011  -0.267   0.402  1.00  0.00     0.173 HD
HETATM    8  H2  UNL     1       2.018  -0.780   1.461  1.00  0.00     0.170 HD
ENDROOT
BRANCH   2   9
HETATM    9  C23 UNL     1      -1.842   0.105  -1.645  1.00  0.00     0.033 C 
HETATM   10  C24 UNL     1      -2.639  -0.271  -0.542  1.00  0.00     0.030 C 
HETATM   11  C25 UNL     1      -3.974   0.175  -0.445  1.00  0.00    -0.013 C 
HETATM   12  C26 UNL     1      -4.658   0.523  -1.652  1.00  0.00    -0.014 C 
HETATM   13  C27 UNL     1      -3.826   1.027  -2.700  1.00  0.00     0.014 C 
HETATM   14  C28 UNL     1      -2.442   0.830  -2.681  1.00  0.00     0.018 C 
BRANCH  11  15
HETATM   15  C50 UNL     1      -4.228   0.921   0.743  1.00  0.00    -0.014 C 
HETATM   16  C47 UNL     1      -5.193   1.867   1.144  1.00  0.00    -0.014 C 
HETATM   17  C48 UNL     1      -4.448   2.223   2.177  1.00  0.00     0.014 C 
HETATM   18  C49 UNL     1      -3.554   1.129   1.879  1.00  0.00     0.014 C 
BRANCH  16  19
HETATM   19  C46 UNL     1      -6.444   2.245   0.674  1.00  0.00    -0.014 C 
HETATM   20  C41 UNL     1      -7.395   1.249   0.361  1.00  0.00    -0.014 C 
HETATM   21  C42 UNL     1      -8.651   1.631  -0.171  1.00  0.00     0.013 C 
HETATM   22  C43 UNL     1      -8.930   2.982  -0.395  1.00  0.00     0.001 C 
HETATM   23  C44 UNL     1      -8.010   3.970  -0.003  1.00  0.00     0.001 C 
HETATM   24  C45 UNL     1      -6.797   3.607   0.581  1.00  0.00     0.013 C 
BRANCH  20  25
HETATM   25  C40 UNL     1      -7.224  -0.057   0.872  1.00  0.00    -0.014 A 
HETATM   26  C35 UNL     1      -6.686  -1.124   0.098  1.00  0.00    -0.014 A 
HETATM   27  C36 UNL     1      -6.494  -2.377   0.705  1.00  0.00     0.013 A 
HETATM   28  C37 UNL     1      -6.727  -2.545   2.081  1.00  0.00     0.001 A 
HETATM   29  C38 UNL     1      -7.235  -1.495   2.836  1.00  0.00     0.001 A 
HETATM   30  C39 UNL     1      -7.492  -0.255   2.239  1.00  0.00     0.013 A 
BRANCH  26  31
HETATM   31  C34 UNL     1      -6.628  -1.022  -1.309  1.00  0.00    -0.014 C 
HETATM   32  C29 UNL     1      -5.974   0.053  -2.000  1.00  0.00    -0.014 C 
HETATM   33  C30 UNL     1      -6.570   0.465  -3.233  1.00  0.00     0.013 C 
HETATM   34  C31 UNL     1      -7.536  -0.320  -3.870  1.00  0.00     0.001 C 
HETATM   35  C32 UNL     1      -7.957  -1.506  -3.305  1.00  0.00     0.001 C 
HETATM   36  C33 UNL     1      -7.537  -1.837  -2.018  1.00  0.00     0.013 C 
ENDBRANCH  26  31
ENDBRANCH  20  25
ENDBRANCH  16  19
ENDBRANCH  11  15
ENDBRANCH   2   9
BRANCH   6  37
HETATM   37  C3  UNL     1       3.926  -1.259   0.662  1.00  0.00     0.037 A 
HETATM   38  C4  UNL     1       4.611  -2.170  -0.156  1.00  0.00     0.030 A 
HETATM   39  C5  UNL     1       6.006  -2.295  -0.060  1.00  0.00     0.015 A 
HETATM   40  C6  UNL     1       6.734  -1.548   0.889  1.00  0.00    -0.011 A 
HETATM   41  C7  UNL     1       6.048  -0.626   1.715  1.00  0.00     0.023 A 
HETATM   42  C22 UNL     1       8.184  -1.831   1.011  1.00  0.00    -0.014 A 
HETATM   43  C8  UNL     1       4.652  -0.522   1.605  1.00  0.00     0.045 A 
HETATM   44  C9  UNL     1       6.712   0.167   2.778  1.00  0.00     0.164 C 
HETATM   45  O3  UNL     1       6.233   0.143   3.942  1.00  0.00    -0.292 OA
HETATM   46  C10 UNL     1       7.956   0.961   2.554  1.00  0.00     0.123 C 
HETATM   47  C11 UNL     1       8.158   1.358   1.102  1.00  0.00    -0.040 A 
HETATM   48  C12 UNL     1       7.753   2.627   0.659  1.00  0.00     0.008 A 
HETATM   49  C16 UNL     1       8.779   0.459   0.186  1.00  0.00    -0.018 A 
HETATM   50  C13 UNL     1       7.973   3.007  -0.669  1.00  0.00     0.001 A 
HETATM   51  C14 UNL     1       8.609   2.139  -1.560  1.00  0.00     0.001 A 
HETATM   52  C15 UNL     1       9.013   0.870  -1.140  1.00  0.00     0.013 A 
HETATM   53  C17 UNL     1       9.164  -0.898   0.609  1.00  0.00    -0.014 A 
HETATM   54  C18 UNL     1      10.519  -1.241   0.681  1.00  0.00     0.013 A 
HETATM   55  C19 UNL     1      10.900  -2.517   1.109  1.00  0.00     0.001 A 
HETATM   56  C20 UNL     1       9.939  -3.449   1.494  1.00  0.00     0.001 A 
HETATM   57  C21 UNL     1       8.577  -3.113   1.442  1.00  0.00     0.013 A 
ENDBRANCH   6  37
TORSDOF 7
