REMARK  3 active torsions:
REMARK  status: ('A' for Active; 'I' for Inactive)
REMARK    1  A    between atoms: N1_1  and  C1_2 
REMARK    2  A    between atoms: C4_5  and  C5_6 
REMARK    3  A    between atoms: C26_27  and  C27_28 
ROOT
HETATM    1  C5  UNL     1      -0.095  -0.266  -1.578  1.00  0.00    -0.025 A 
HETATM    2  C6  UNL     1      -0.420   1.085  -1.773  1.00  0.00     0.013 A 
HETATM    3  C7  UNL     1      -1.752   1.487  -1.859  1.00  0.00     0.014 A 
HETATM    4  C8  UNL     1      -2.790   0.550  -1.760  1.00  0.00    -0.019 A 
HETATM    5  C9  UNL     1      -2.481  -0.821  -1.587  1.00  0.00    -0.046 A 
HETATM    6  C10 UNL     1      -1.132  -1.209  -1.488  1.00  0.00     0.020 A 
HETATM    7  C11 UNL     1      -3.552  -1.899  -1.593  1.00  0.00     0.044 C 
HETATM    8  C12 UNL     1      -4.581  -1.849  -0.440  1.00  0.00     0.044 C 
HETATM    9  C13 UNL     1      -4.191  -0.963   0.722  1.00  0.00    -0.047 A 
HETATM   10  C14 UNL     1      -3.611  -1.527   1.871  1.00  0.00     0.008 A 
HETATM   11  C15 UNL     1      -3.291  -0.724   2.968  1.00  0.00     0.001 A 
HETATM   12  C16 UNL     1      -3.544   0.649   2.928  1.00  0.00     0.001 A 
HETATM   13  C17 UNL     1      -4.107   1.226   1.788  1.00  0.00     0.013 A 
HETATM   14  C18 UNL     1      -4.422   0.431   0.676  1.00  0.00    -0.019 A 
HETATM   15  C19 UNL     1      -4.939   1.067  -0.556  1.00  0.00    -0.014 A 
HETATM   16  C20 UNL     1      -6.210   1.662  -0.547  1.00  0.00     0.013 A 
HETATM   17  C21 UNL     1      -6.731   2.230  -1.712  1.00  0.00     0.001 A 
HETATM   18  C22 UNL     1      -5.985   2.216  -2.892  1.00  0.00     0.001 A 
HETATM   19  C23 UNL     1      -4.712   1.639  -2.912  1.00  0.00     0.013 A 
HETATM   20  C24 UNL     1      -4.182   1.054  -1.751  1.00  0.00    -0.014 A 
ENDROOT
BRANCH   1  21
HETATM   21  C4  UNL     1       1.327  -0.693  -1.481  1.00  0.00    -0.025 A 
HETATM   22  C3  UNL     1       1.758  -1.881  -2.092  1.00  0.00     0.014 A 
HETATM   23  C2  UNL     1       3.092  -2.281  -2.002  1.00  0.00     0.031 A 
HETATM   24  C1  UNL     1       4.025  -1.505  -1.302  1.00  0.00     0.037 A 
HETATM   25  C26 UNL     1       3.601  -0.316  -0.664  1.00  0.00     0.004 A 
HETATM   26  C25 UNL     1       2.260   0.084  -0.769  1.00  0.00     0.027 A 
BRANCH  24  27
HETATM   27  N1  UNL     1       5.397  -1.921  -1.275  1.00  0.00    -0.398 N 
HETATM   28  H1  UNL     1       5.682  -2.834  -1.696  1.00  0.00     0.156 HD
HETATM   29  H2  UNL     1       6.154  -1.307  -0.900  1.00  0.00     0.156 HD
ENDBRANCH  24  27
BRANCH  25  30
HETATM   30  C27 UNL     1       4.531   0.515   0.136  1.00  0.00     0.006 A 
HETATM   31  C28 UNL     1       4.804   1.830  -0.273  1.00  0.00     0.015 A 
HETATM   32  C29 UNL     1       5.673   2.638   0.466  1.00  0.00     0.002 A 
HETATM   33  C30 UNL     1       6.275   2.147   1.626  1.00  0.00     0.014 A 
HETATM   34  C31 UNL     1       6.004   0.842   2.060  1.00  0.00    -0.006 A 
HETATM   35  C32 UNL     1       6.588   0.332   3.227  1.00  0.00     0.015 A 
HETATM   36  C35 UNL     1       5.124   0.021   1.316  1.00  0.00     0.077 A 
HETATM   37  C33 UNL     1       6.292  -0.967   3.641  1.00  0.00     0.020 A 
HETATM   38  C34 UNL     1       5.410  -1.744   2.888  1.00  0.00     0.117 A 
HETATM   39  N2  UNL     1       4.850  -1.240   1.756  1.00  0.00    -0.259 NA
ENDBRANCH  25  30
ENDBRANCH   1  21
TORSDOF 3
