REMARK  2 active torsions:
REMARK  status: ('A' for Active; 'I' for Inactive)
REMARK       I    between atoms: C1_2  and  N1_3 
REMARK    1  A    between atoms: C1_2  and  C15_19 
REMARK    2  A    between atoms: N1_3  and  C2_4 
ROOT
HETATM    1  O1  UNL     1       0.756   2.083  -1.792  1.00  0.00    -0.267 OA
HETATM    2  C1  UNL     1       0.320   1.538  -0.741  1.00  0.00     0.256 C 
HETATM    3  N1  UNL     1       1.235   1.188   0.312  1.00  0.00    -0.322 N 
HETATM    4  H1  UNL     1       0.869   0.829   1.222  1.00  0.00     0.169 HD
ENDROOT
BRANCH   2   5
HETATM    5  C15 UNL     1      -1.133   1.272  -0.613  1.00  0.00     0.032 A 
HETATM    6  C16 UNL     1      -2.052   2.058  -1.323  1.00  0.00     0.018 A 
HETATM    7  C17 UNL     1      -3.422   1.813  -1.224  1.00  0.00     0.014 A 
HETATM    8  C18 UNL     1      -3.910   0.771  -0.416  1.00  0.00    -0.019 A 
HETATM    9  C19 UNL     1      -2.991  -0.028   0.300  1.00  0.00    -0.046 A 
HETATM   10  C29 UNL     1      -5.378   0.529  -0.336  1.00  0.00    -0.011 A 
HETATM   11  C20 UNL     1      -1.612   0.220   0.184  1.00  0.00     0.025 A 
HETATM   12  C21 UNL     1      -3.472  -1.177   1.146  1.00  0.00     0.047 C 
HETATM   13  C22 UNL     1      -3.943  -2.331   0.258  1.00  0.00     0.088 C 
HETATM   14  C23 UNL     1      -5.099  -1.982  -0.646  1.00  0.00     0.160 C 
HETATM   15  O3  UNL     1      -5.419  -2.806  -1.544  1.00  0.00    -0.292 OA
HETATM   16  C24 UNL     1      -5.935  -0.772  -0.458  1.00  0.00     0.021 A 
HETATM   17  C25 UNL     1      -7.332  -0.926  -0.445  1.00  0.00     0.016 A 
HETATM   18  C26 UNL     1      -8.170   0.178  -0.282  1.00  0.00     0.001 A 
HETATM   19  C27 UNL     1      -7.625   1.452  -0.138  1.00  0.00     0.001 A 
HETATM   20  C28 UNL     1      -6.241   1.629  -0.168  1.00  0.00     0.013 A 
ENDBRANCH   2   5
BRANCH   3  21
HETATM   21  C2  UNL     1       2.653   1.385   0.199  1.00  0.00     0.051 A 
HETATM   22  C3  UNL     1       3.124   2.682  -0.031  1.00  0.00     0.030 A 
HETATM   23  C4  UNL     1       4.486   2.942  -0.077  1.00  0.00     0.003 A 
HETATM   24  C5  UNL     1       5.405   1.918   0.122  1.00  0.00     0.013 A 
HETATM   25  C6  UNL     1       4.980   0.589   0.365  1.00  0.00    -0.006 A 
HETATM   26  C7  UNL     1       3.578   0.316   0.388  1.00  0.00     0.070 A 
HETATM   27  C14 UNL     1       5.905  -0.476   0.580  1.00  0.00     0.002 A 
HETATM   28  C8  UNL     1       3.152  -1.022   0.570  1.00  0.00     0.259 A 
HETATM   29  O2  UNL     1       1.929  -1.329   0.540  1.00  0.00    -0.267 OA
HETATM   30  N2  UNL     1       4.058  -2.013   0.765  1.00  0.00    -0.322 N 
HETATM   31  C9  UNL     1       5.398  -1.785   0.781  1.00  0.00     0.046 A 
HETATM   32  H5  UNL     1       3.702  -2.988   0.902  1.00  0.00     0.169 HD
HETATM   33  C10 UNL     1       6.277  -2.861   0.993  1.00  0.00     0.030 A 
HETATM   34  C11 UNL     1       7.654  -2.656   1.012  1.00  0.00     0.002 A 
HETATM   35  C12 UNL     1       8.169  -1.378   0.822  1.00  0.00     0.001 A 
HETATM   36  C13 UNL     1       7.312  -0.296   0.608  1.00  0.00     0.014 A 
ENDBRANCH   3  21
TORSDOF 2
