REMARK  2 active torsions:
REMARK  status: ('A' for Active; 'I' for Inactive)
REMARK    1  A    between atoms: C4_4  and  C5_5 
REMARK    2  A    between atoms: C17_19  and  C18_20 
ROOT
HETATM    1  C1  UNL     1      -3.527  -1.976  -1.351  1.00  0.00     0.049 C 
HETATM    2  C2  UNL     1      -2.523  -1.165  -0.575  1.00  0.00    -0.050 A 
HETATM    3  C3  UNL     1      -1.194  -1.618  -0.505  1.00  0.00     0.020 A 
HETATM    4  C4  UNL     1      -0.216  -0.882   0.181  1.00  0.00    -0.023 A 
HETATM    5  C15 UNL     1      -0.581   0.309   0.823  1.00  0.00     0.013 A 
HETATM    6  C16 UNL     1      -1.900   0.761   0.778  1.00  0.00     0.013 A 
HETATM    7  C17 UNL     1      -2.885   0.029   0.097  1.00  0.00    -0.020 A 
ENDROOT
BRANCH   4   8
HETATM    8  C5  UNL     1       1.180  -1.374   0.241  1.00  0.00     0.008 A 
HETATM    9  C6  UNL     1       1.429  -2.679   0.693  1.00  0.00     0.015 A 
HETATM   10  C7  UNL     1       2.734  -3.162   0.774  1.00  0.00     0.002 A 
HETATM   11  C8  UNL     1       3.803  -2.359   0.380  1.00  0.00     0.012 A 
HETATM   12  C9  UNL     1       3.581  -1.054  -0.091  1.00  0.00     0.004 A 
HETATM   13  C10 UNL     1       2.263  -0.551  -0.139  1.00  0.00     0.087 A 
HETATM   14  C14 UNL     1       4.735  -0.262  -0.657  1.00  0.00     0.313 C 
HETATM   15  O1  UNL     1       2.007   0.750  -0.585  1.00  0.00    -0.348 OA
HETATM   16  C11 UNL     1       2.613   1.896   0.004  1.00  0.00     0.206 C 
HETATM   17  C12 UNL     1       4.058   2.074  -0.454  1.00  0.00     0.299 C 
HETATM   18  N1  UNL     1       4.922   1.003   0.086  1.00  0.00     0.090 N 
HETATM   19  C13 UNL     1       6.332   1.427   0.014  1.00  0.00     0.310 C 
ENDBRANCH   4   8
BRANCH   7  20
HETATM   20  C18 UNL     1      -4.276   0.536   0.104  1.00  0.00    -0.022 A 
HETATM   21  C19 UNL     1      -4.564   1.810  -0.413  1.00  0.00     0.015 A 
HETATM   22  C20 UNL     1      -5.874   2.297  -0.397  1.00  0.00     0.046 A 
HETATM   23  C21 UNL     1      -6.904   1.520   0.141  1.00  0.00     0.154 A 
HETATM   24  F1  UNL     1      -8.174   1.997   0.155  1.00  0.00    -0.203 F 
HETATM   25  C22 UNL     1      -6.624   0.256   0.670  1.00  0.00     0.155 A 
HETATM   26  F2  UNL     1      -7.620  -0.495   1.201  1.00  0.00    -0.203 F 
HETATM   27  C23 UNL     1      -5.314  -0.234   0.655  1.00  0.00     0.057 A 
ENDBRANCH   7  20
TORSDOF 2
