REMARK  3 active torsions:
REMARK  status: ('A' for Active; 'I' for Inactive)
REMARK    1  A    between atoms: C1_2  and  C2_3 
REMARK       I    between atoms: C1_2  and  N1_9 
REMARK    2  A    between atoms: N2_13  and  C11_14 
REMARK    3  A    between atoms: C11_14  and  C12_15 
ROOT
HETATM    1  O1  UNL     1      -4.007  -2.290  -1.678  1.00  0.00    -0.267 OA
HETATM    2  C1  UNL     1      -3.403  -1.375  -1.053  1.00  0.00     0.258 C 
HETATM    3  N1  UNL     1      -1.971  -1.229  -1.219  1.00  0.00    -0.312 N 
HETATM    4  C8  UNL     1      -1.161  -2.409  -1.550  1.00  0.00     0.134 C 
HETATM    5  C9  UNL     1      -0.627  -3.072  -0.277  1.00  0.00     0.040 C 
HETATM    6  C10 UNL     1      -0.060  -2.057   0.726  1.00  0.00     0.125 C 
HETATM    7  N2  UNL     1       0.675  -0.985   0.042  1.00  0.00    -0.375 N 
HETATM    8  C20 UNL     1      -0.040   0.175  -0.451  1.00  0.00     0.057 A 
HETATM    9  C21 UNL     1       0.527   1.454  -0.304  1.00  0.00     0.031 A 
HETATM   10  C22 UNL     1      -0.120   2.586  -0.800  1.00  0.00     0.002 A 
HETATM   11  C23 UNL     1      -1.343   2.462  -1.451  1.00  0.00     0.002 A 
HETATM   12  C24 UNL     1      -1.935   1.208  -1.593  1.00  0.00     0.032 A 
HETATM   13  C25 UNL     1      -1.314   0.054  -1.077  1.00  0.00     0.064 A 
ENDROOT
BRANCH   7  14
HETATM   14  C11 UNL     1       2.045  -1.253  -0.424  1.00  0.00     0.162 C 
BRANCH  14  15
HETATM   15  C12 UNL     1       3.065  -0.502   0.393  1.00  0.00    -0.031 A 
HETATM   16  C13 UNL     1       3.166  -0.716   1.785  1.00  0.00     0.009 A 
HETATM   17  C14 UNL     1       4.122  -0.022   2.553  1.00  0.00     0.002 A 
HETATM   18  C15 UNL     1       4.994   0.891   1.945  1.00  0.00     0.017 A 
HETATM   19  C16 UNL     1       4.884   1.086   0.571  1.00  0.00     0.040 A 
HETATM   20  C17 UNL     1       3.955   0.414  -0.197  1.00  0.00    -0.017 A 
HETATM   21  C19 UNL     1       5.631   1.948  -0.308  1.00  0.00     0.252 A 
HETATM   22  C18 UNL     1       4.067   0.829  -1.642  1.00  0.00     0.163 A 
HETATM   23  N3  UNL     1       5.157   1.807  -1.638  1.00  0.00    -0.353 N 
HETATM   24  H19 UNL     1       5.515   2.324  -2.471  1.00  0.00     0.163 HD
HETATM   25  O2  UNL     1       6.566   2.719   0.031  1.00  0.00    -0.268 OA
ENDBRANCH  14  15
ENDBRANCH   7  14
BRANCH   2  26
HETATM   26  C2  UNL     1      -4.199  -0.478  -0.175  1.00  0.00     0.032 A 
HETATM   27  C3  UNL     1      -3.651   0.078   0.996  1.00  0.00     0.017 A 
HETATM   28  C4  UNL     1      -4.418   0.919   1.807  1.00  0.00     0.001 A 
HETATM   29  C5  UNL     1      -5.741   1.206   1.467  1.00  0.00     0.000 A 
HETATM   30  C6  UNL     1      -6.301   0.647   0.316  1.00  0.00     0.001 A 
HETATM   31  C7  UNL     1      -5.537  -0.194  -0.499  1.00  0.00     0.017 A 
ENDBRANCH   2  26
TORSDOF 3
