REMARK  1 active torsions:
REMARK  status: ('A' for Active; 'I' for Inactive)
REMARK    1  A    between atoms: C7_8  and  C8_9 
REMARK       I    between atoms: C8_9  and  N1_11 
ROOT
HETATM    1  C8  UNL     1       0.091   1.248   0.590  1.00  0.00     0.258 C 
HETATM    2  O2  UNL     1      -0.354   2.286   1.152  1.00  0.00    -0.267 OA
HETATM    3  N1  UNL     1      -0.784   0.477  -0.256  1.00  0.00    -0.312 N 
HETATM    4  C9  UNL     1      -0.739  -1.000  -0.188  1.00  0.00     0.152 C 
HETATM    5  C10 UNL     1      -2.102  -1.673  -0.449  1.00  0.00     0.147 A 
HETATM    6  C11 UNL     1      -2.340  -2.849   0.358  1.00  0.00     0.235 A 
HETATM    7  O3  UNL     1      -1.807  -3.980   0.504  1.00  0.00    -0.272 OA
HETATM    8  N2  UNL     1      -3.482  -2.148   0.929  1.00  0.00    -0.324 N 
HETATM    9  C12 UNL     1      -4.436  -2.464   1.978  1.00  0.00     0.159 C 
HETATM   10  C13 UNL     1      -3.201  -0.956   0.145  1.00  0.00     0.029 A 
HETATM   11  C14 UNL     1      -3.708   0.257  -0.020  1.00  0.00     0.040 C 
HETATM   12  C15 UNL     1      -3.068   1.176  -0.977  1.00  0.00    -0.007 A 
HETATM   13  C16 UNL     1      -3.874   2.034  -1.740  1.00  0.00     0.017 A 
HETATM   14  C17 UNL     1      -3.300   2.883  -2.690  1.00  0.00     0.043 A 
HETATM   15  C18 UNL     1      -1.917   2.892  -2.878  1.00  0.00     0.118 A 
HETATM   16  F1  UNL     1      -1.363   3.723  -3.794  1.00  0.00    -0.206 F 
HETATM   17  C19 UNL     1      -1.100   2.062  -2.105  1.00  0.00     0.072 A 
HETATM   18  C20 UNL     1      -1.660   1.197  -1.152  1.00  0.00     0.050 A 
ENDROOT
BRANCH   1  19
HETATM   19  C7  UNL     1       1.498   0.852   0.815  1.00  0.00     0.033 A 
HETATM   20  C6  UNL     1       2.117   1.107   2.062  1.00  0.00     0.017 A 
HETATM   21  C5  UNL     1       3.455   0.744   2.283  1.00  0.00     0.009 A 
HETATM   22  C4  UNL     1       4.166   0.137   1.247  1.00  0.00    -0.044 A 
HETATM   23  C3  UNL     1       5.593  -0.313   1.273  1.00  0.00     0.047 A 
HETATM   24  C22 UNL     1       3.573  -0.097   0.034  1.00  0.00     0.017 A 
HETATM   25  C2  UNL     1       5.840  -0.895  -0.140  1.00  0.00     0.088 A 
HETATM   26  C1  UNL     1       4.535  -0.714  -0.843  1.00  0.00     0.160 A 
HETATM   27  O1  UNL     1       4.307  -1.060  -2.033  1.00  0.00    -0.292 OA
HETATM   28  C21 UNL     1       2.247   0.252  -0.219  1.00  0.00     0.032 A 
ENDBRANCH   1  19
TORSDOF 1
