REMARK  2 active torsions:
REMARK  status: ('A' for Active; 'I' for Inactive)
REMARK    1  A    between atoms: C8_8  and  C9_9 
REMARK    2  A    between atoms: C9_9  and  C10_10 
REMARK       I    between atoms: C10_10  and  N1_12 
ROOT
HETATM    1  C10 UNL     1      -1.071  -0.451   1.504  1.00  0.00     0.224 C 
HETATM    2  O1  UNL     1      -1.390  -1.651   1.282  1.00  0.00    -0.273 OA
HETATM    3  N1  UNL     1      -1.786   0.621   0.850  1.00  0.00    -0.340 N 
HETATM    4  C11 UNL     1      -1.782   1.988   1.359  1.00  0.00     0.127 C 
HETATM    5  C12 UNL     1      -2.772   2.758   0.505  1.00  0.00     0.022 C 
HETATM    6  C13 UNL     1      -2.914   1.936  -0.767  1.00  0.00     0.035 C 
HETATM    7  C14 UNL     1      -2.615   0.474  -0.357  1.00  0.00     0.058 C 
HETATM    8  C15 UNL     1      -1.819  -0.249  -1.501  1.00  0.00     0.059 C 
HETATM    9  C16 UNL     1      -2.267  -1.682  -1.828  1.00  0.00     0.173 C 
HETATM   10  O2  UNL     1      -3.474  -1.671  -2.563  1.00  0.00    -0.367 OA
HETATM   11  C17 UNL     1      -4.591  -1.669  -1.699  1.00  0.00     0.337 C 
HETATM   12  O3  UNL     1      -4.778  -0.397  -1.110  1.00  0.00    -0.365 OA
HETATM   13  C18 UNL     1      -3.945  -0.233   0.023  1.00  0.00     0.201 C 
ENDROOT
BRANCH   1  14
HETATM   14  C9  UNL     1       0.108  -0.187   2.399  1.00  0.00     0.143 C 
BRANCH  14  15
HETATM   15  C8  UNL     1       1.383  -0.327   1.613  1.00  0.00    -0.031 A 
HETATM   16  C7  UNL     1       1.958   0.782   0.977  1.00  0.00     0.022 A 
HETATM   17  C6  UNL     1       3.121   0.629   0.210  1.00  0.00    -0.006 A 
HETATM   18  C5  UNL     1       3.717   1.727  -0.426  1.00  0.00     0.014 A 
HETATM   19  C20 UNL     1       3.697  -0.657   0.085  1.00  0.00     0.072 A 
HETATM   20  C4  UNL     1       4.882   1.551  -1.175  1.00  0.00     0.002 A 
HETATM   21  C3  UNL     1       5.458   0.283  -1.298  1.00  0.00     0.009 A 
HETATM   22  C2  UNL     1       4.868  -0.832  -0.680  1.00  0.00    -0.032 A 
HETATM   23  C1  UNL     1       5.517  -2.185  -0.797  1.00  0.00     0.050 C 
HETATM   24  N2  UNL     1       3.111  -1.718   0.706  1.00  0.00    -0.259 NA
HETATM   25  C19 UNL     1       1.982  -1.585   1.451  1.00  0.00     0.124 A 
ENDBRANCH  14  15
ENDBRANCH   1  14
TORSDOF 2
