REMARK  1 active torsions:
REMARK  status: ('A' for Active; 'I' for Inactive)
REMARK       I    between atoms: C1_2  and  N1_3 
REMARK       I    between atoms: C1_2  and  N3_13 
REMARK    1  A    between atoms: N1_3  and  C2_4 
ROOT
HETATM    1  O1  UNL     1       1.798  -1.121   2.037  1.00  0.00    -0.246 OA
HETATM    2  C1  UNL     1       0.930  -0.652   1.251  1.00  0.00     0.327 C 
HETATM    3  N1  UNL     1       1.311   0.159   0.132  1.00  0.00    -0.306 N 
HETATM    4  N3  UNL     1      -0.456  -0.895   1.505  1.00  0.00    -0.299 N 
HETATM    5  C10 UNL     1      -1.079  -0.243   2.666  1.00  0.00     0.138 C 
HETATM    6  C11 UNL     1      -2.605  -0.151   2.546  1.00  0.00     0.060 C 
HETATM    7  C12 UNL     1      -3.017   0.424   1.211  1.00  0.00    -0.045 A 
HETATM    8  C13 UNL     1      -3.534   1.728   1.142  1.00  0.00     0.008 A 
HETATM    9  C14 UNL     1      -3.952   2.259  -0.081  1.00  0.00     0.001 A 
HETATM   10  C15 UNL     1      -3.856   1.497  -1.245  1.00  0.00     0.001 A 
HETATM   11  C16 UNL     1      -3.324   0.204  -1.193  1.00  0.00     0.013 A 
HETATM   12  C17 UNL     1      -2.895  -0.344   0.028  1.00  0.00    -0.017 A 
HETATM   13  C18 UNL     1      -2.298  -1.705   0.058  1.00  0.00     0.005 A 
HETATM   14  C19 UNL     1      -2.906  -2.759  -0.646  1.00  0.00     0.056 A 
HETATM   15  C20 UNL     1      -2.354  -4.041  -0.624  1.00  0.00     0.117 A 
HETATM   16  F1  UNL     1      -2.962  -5.053  -1.294  1.00  0.00    -0.206 F 
HETATM   17  C21 UNL     1      -1.177  -4.282   0.085  1.00  0.00     0.044 A 
HETATM   18  C22 UNL     1      -0.557  -3.246   0.786  1.00  0.00     0.034 A 
HETATM   19  C23 UNL     1      -1.115  -1.956   0.788  1.00  0.00     0.050 A 
HETATM   20  H1  UNL     1       0.569   0.734  -0.331  1.00  0.00     0.171 HD
ENDROOT
BRANCH   3  21
HETATM   21  C2  UNL     1       2.667   0.290  -0.321  1.00  0.00     0.065 A 
HETATM   22  C3  UNL     1       3.675  -0.664  -0.226  1.00  0.00     0.049 A 
HETATM   23  C4  UNL     1       4.793  -0.113  -0.835  1.00  0.00     0.099 A 
HETATM   24  N2  UNL     1       4.492   1.120  -1.286  1.00  0.00    -0.331 N 
HETATM   25  C5  UNL     1       5.301   2.018  -1.905  1.00  0.00     0.096 A 
HETATM   26  C9  UNL     1       3.206   1.371  -0.990  1.00  0.00     0.065 A 
HETATM   27  C6  UNL     1       4.769   3.269  -2.249  1.00  0.00     0.018 A 
HETATM   28  C7  UNL     1       3.424   3.555  -1.952  1.00  0.00     0.004 A 
HETATM   29  C8  UNL     1       2.619   2.596  -1.313  1.00  0.00     0.032 A 
ENDBRANCH   3  21
TORSDOF 1
