REMARK  6 active torsions:
REMARK  status: ('A' for Active; 'I' for Inactive)
REMARK       I    between atoms: C1_2  and  N1_3 
REMARK    1  A    between atoms: C1_2  and  C26_29 
REMARK    2  A    between atoms: N1_3  and  C2_4 
REMARK    3  A    between atoms: C4_6  and  C25_28 
REMARK    4  A    between atoms: C5_7  and  C8_11 
REMARK    5  A    between atoms: C13_16  and  C14_17 
REMARK    6  A    between atoms: C19_22  and  C20_23 
ROOT
HETATM    1  O1  UNL     1      -0.158  -0.722   1.863  1.00  0.00    -0.266 OA
HETATM    2  C1  UNL     1      -0.745  -0.340   0.803  1.00  0.00     0.272 C 
HETATM    3  N1  UNL     1      -0.103   0.552  -0.129  1.00  0.00    -0.319 N 
HETATM    4  H1  UNL     1      -0.706   0.926  -0.899  1.00  0.00     0.169 HD
ENDROOT
BRANCH   3   5
HETATM    5  C2  UNL     1       1.296   0.882  -0.049  1.00  0.00     0.074 C 
HETATM    6  C3  UNL     1       2.235  -0.015   0.490  1.00  0.00     0.046 C 
HETATM    7  C4  UNL     1       3.585   0.279   0.709  1.00  0.00    -0.012 C 
HETATM    8  C5  UNL     1       4.069   1.490   0.145  1.00  0.00    -0.011 C 
HETATM    9  C6  UNL     1       3.183   2.246  -0.665  1.00  0.00     0.058 C 
HETATM   10  C7  UNL     1       1.809   1.982  -0.700  1.00  0.00     0.143 C 
HETATM   11  F1  UNL     1       1.020   2.815  -1.408  1.00  0.00    -0.204 F 
BRANCH   7  12
HETATM   12  C25 UNL     1       4.434  -0.748   1.391  1.00  0.00    -0.014 C 
HETATM   13  C20 UNL     1       5.638  -1.296   0.855  1.00  0.00    -0.014 C 
HETATM   14  C21 UNL     1       6.252  -2.340   1.565  1.00  0.00     0.013 C 
HETATM   15  C22 UNL     1       5.643  -2.973   2.655  1.00  0.00     0.001 C 
HETATM   16  C23 UNL     1       4.445  -2.481   3.137  1.00  0.00     0.001 C 
HETATM   17  C24 UNL     1       3.922  -1.307   2.603  1.00  0.00     0.013 C 
BRANCH  13  18
HETATM   18  C19 UNL     1       6.251  -0.886  -0.418  1.00  0.00    -0.014 C 
HETATM   19  C14 UNL     1       6.867   0.382  -0.612  1.00  0.00    -0.014 C 
HETATM   20  C15 UNL     1       7.714   0.543  -1.731  1.00  0.00     0.013 C 
HETATM   21  C16 UNL     1       8.040  -0.504  -2.573  1.00  0.00     0.001 C 
HETATM   22  C17 UNL     1       7.404  -1.708  -2.412  1.00  0.00     0.001 C 
HETATM   23  C18 UNL     1       6.475  -1.873  -1.379  1.00  0.00     0.013 C 
BRANCH  19  24
HETATM   24  C13 UNL     1       6.617   1.582   0.265  1.00  0.00    -0.014 C 
HETATM   25  C8  UNL     1       5.339   2.097   0.570  1.00  0.00    -0.014 C 
HETATM   26  C9  UNL     1       5.233   3.281   1.315  1.00  0.00     0.013 C 
HETATM   27  C10 UNL     1       6.345   4.033   1.607  1.00  0.00     0.001 C 
HETATM   28  C11 UNL     1       7.610   3.562   1.310  1.00  0.00     0.001 C 
HETATM   29  C12 UNL     1       7.734   2.326   0.695  1.00  0.00     0.013 C 
ENDBRANCH  19  24
ENDBRANCH  13  18
ENDBRANCH   7  12
ENDBRANCH   3   5
BRANCH   2  30
HETATM   30  C26 UNL     1      -2.099  -0.879   0.509  1.00  0.00     0.104 C 
HETATM   31  C27 UNL     1      -3.111  -0.039   0.057  1.00  0.00     0.048 C 
HETATM   32  C28 UNL     1      -4.344  -0.527  -0.390  1.00  0.00    -0.011 C 
HETATM   33  C29 UNL     1      -4.536  -1.964  -0.282  1.00  0.00     0.021 C 
HETATM   34  C44 UNL     1      -5.372   0.444  -0.986  1.00  0.00    -0.014 C 
HETATM   35  C30 UNL     1      -3.529  -2.760   0.330  1.00  0.00     0.253 C 
HETATM   36  C31 UNL     1      -5.758  -2.702  -0.754  1.00  0.00     0.050 C 
HETATM   37  O2  UNL     1      -3.692  -3.985   0.540  1.00  0.00    -0.268 OA
HETATM   38  N2  UNL     1      -2.326  -2.227   0.635  1.00  0.00    -0.319 N 
HETATM   39  H17 UNL     1      -1.580  -2.807   1.044  1.00  0.00     0.169 HD
HETATM   40  C32 UNL     1      -6.934  -2.522   0.253  1.00  0.00     0.044 C 
HETATM   41  C33 UNL     1      -7.476  -1.141   0.397  1.00  0.00    -0.047 C 
HETATM   42  C34 UNL     1      -7.926  -0.727   1.654  1.00  0.00     0.008 C 
HETATM   43  C38 UNL     1      -7.663  -0.296  -0.738  1.00  0.00    -0.019 C 
HETATM   44  C35 UNL     1      -8.764   0.377   1.776  1.00  0.00     0.001 C 
HETATM   45  C36 UNL     1      -9.197   1.060   0.657  1.00  0.00     0.001 C 
HETATM   46  C37 UNL     1      -8.632   0.751  -0.569  1.00  0.00     0.013 C 
HETATM   47  C39 UNL     1      -6.490  -0.039  -1.666  1.00  0.00    -0.014 C 
HETATM   48  C40 UNL     1      -6.729   0.472  -2.976  1.00  0.00     0.013 C 
HETATM   49  C41 UNL     1      -6.314   1.782  -3.259  1.00  0.00     0.001 C 
HETATM   50  C42 UNL     1      -5.500   2.455  -2.359  1.00  0.00     0.001 C 
HETATM   51  C43 UNL     1      -5.089   1.827  -1.176  1.00  0.00     0.013 C 
ENDBRANCH   2  30
TORSDOF 6
