REMARK  2 active torsions:
REMARK  status: ('A' for Active; 'I' for Inactive)
REMARK    1  A    between atoms: N1_1  and  C1_2 
REMARK    2  A    between atoms: C7_8  and  C8_9 
ROOT
HETATM    1  C1  UNL     1      -1.575  -2.600  -2.698  1.00  0.00     0.026 C 
HETATM    2  C2  UNL     1      -2.913  -2.514  -3.071  1.00  0.00     0.030 C 
HETATM    3  C3  UNL     1      -3.829  -1.894  -2.231  1.00  0.00     0.015 C 
HETATM    4  C4  UNL     1      -3.428  -1.306  -1.018  1.00  0.00    -0.018 C 
HETATM    5  C5  UNL     1      -2.038  -1.273  -0.675  1.00  0.00    -0.036 C 
HETATM    6  C6  UNL     1      -1.154  -2.018  -1.498  1.00  0.00     0.037 C 
HETATM    7  C7  UNL     1      -1.453  -0.630   0.608  1.00  0.00     0.057 C 
HETATM    8  C26 UNL     1      -2.223   0.565   1.223  1.00  0.00     0.053 C 
HETATM    9  C27 UNL     1      -2.623   1.620   0.211  1.00  0.00    -0.046 A 
HETATM   10  C28 UNL     1      -1.751   2.684  -0.075  1.00  0.00     0.008 A 
HETATM   11  C29 UNL     1      -2.115   3.673  -0.994  1.00  0.00     0.001 A 
HETATM   12  C30 UNL     1      -3.361   3.618  -1.622  1.00  0.00     0.001 A 
HETATM   13  C31 UNL     1      -4.248   2.578  -1.331  1.00  0.00     0.013 A 
HETATM   14  C32 UNL     1      -3.884   1.573  -0.421  1.00  0.00    -0.019 A 
HETATM   15  C33 UNL     1      -4.857   0.533  -0.038  1.00  0.00    -0.014 A 
HETATM   16  C34 UNL     1      -6.051   0.918   0.594  1.00  0.00     0.013 A 
HETATM   17  C35 UNL     1      -6.917  -0.046   1.113  1.00  0.00     0.001 A 
HETATM   18  C36 UNL     1      -6.594  -1.398   1.020  1.00  0.00     0.001 A 
HETATM   19  C37 UNL     1      -5.415  -1.794   0.385  1.00  0.00     0.013 A 
HETATM   20  C38 UNL     1      -4.534  -0.837  -0.149  1.00  0.00    -0.014 A 
ENDROOT
BRANCH   7  21
HETATM   21  C8  UNL     1       0.008  -0.206   0.457  1.00  0.00    -0.047 A 
HETATM   22  C9  UNL     1       0.456   0.484  -0.683  1.00  0.00     0.009 A 
HETATM   23  C10 UNL     1       1.773   0.934  -0.769  1.00  0.00     0.016 A 
HETATM   24  C11 UNL     1       2.677   0.728   0.290  1.00  0.00     0.009 A 
HETATM   25  C12 UNL     1       2.241   0.006   1.418  1.00  0.00     0.087 A 
HETATM   26  C25 UNL     1       4.013   1.389   0.260  1.00  0.00    -0.009 A 
HETATM   27  C13 UNL     1       0.912  -0.427   1.507  1.00  0.00     0.046 A 
HETATM   28  O1  UNL     1       3.109  -0.320   2.456  1.00  0.00    -0.309 OA
HETATM   29  C14 UNL     1       4.265  -1.054   2.210  1.00  0.00     0.087 A 
HETATM   30  C15 UNL     1       4.435  -2.267   2.889  1.00  0.00     0.038 A 
HETATM   31  C19 UNL     1       5.232  -0.623   1.277  1.00  0.00     0.009 A 
HETATM   32  C16 UNL     1       5.520  -3.095   2.596  1.00  0.00     0.003 A 
HETATM   33  C17 UNL     1       6.448  -2.711   1.629  1.00  0.00     0.001 A 
HETATM   34  C18 UNL     1       6.310  -1.482   0.977  1.00  0.00     0.015 A 
HETATM   35  C20 UNL     1       5.204   0.756   0.714  1.00  0.00    -0.012 A 
HETATM   36  C21 UNL     1       6.421   1.472   0.650  1.00  0.00     0.016 A 
HETATM   37  C22 UNL     1       6.470   2.768   0.140  1.00  0.00     0.043 A 
HETATM   38  C23 UNL     1       5.306   3.386  -0.300  1.00  0.00     0.117 A 
HETATM   39  F1  UNL     1       5.352   4.652  -0.782  1.00  0.00    -0.206 F 
HETATM   40  C24 UNL     1       4.089   2.710  -0.233  1.00  0.00     0.055 A 
ENDBRANCH   7  21
BRANCH   1  41
HETATM   41  N1  UNL     1      -0.638  -3.283  -3.535  1.00  0.00    -0.399 N 
HETATM   42  H1  UNL     1      -0.941  -3.704  -4.441  1.00  0.00     0.156 HD
HETATM   43  H2  UNL     1       0.370  -3.355  -3.265  1.00  0.00     0.156 HD
ENDBRANCH   1  41
TORSDOF 2
