REMARK  0 active torsions:
REMARK  status: ('A' for Active; 'I' for Inactive)
REMARK       I    between atoms: N2_8  and  C6_9 
REMARK       I    between atoms: C6_9  and  N3_11 
ROOT
HETATM    1  C1  UNL     1       6.147   1.828  -0.475  1.00  0.00     0.068 C 
HETATM    2  C2  UNL     1       4.875   1.051  -0.403  1.00  0.00     0.038 A 
HETATM    3  N1  UNL     1       3.806   1.421  -1.014  1.00  0.00    -0.142 NA
HETATM    4  O1  UNL     1       2.806   0.517  -0.771  1.00  0.00    -0.245 OA
HETATM    5  C3  UNL     1       3.208  -0.547   0.085  1.00  0.00     0.099 A 
HETATM    6  C4  UNL     1       3.023  -1.906  -0.646  1.00  0.00     0.061 C 
HETATM    7  C5  UNL     1       1.645  -2.545  -0.391  1.00  0.00     0.131 C 
HETATM    8  N2  UNL     1       0.644  -1.517  -0.087  1.00  0.00    -0.332 N 
HETATM    9  C6  UNL     1      -0.360  -1.178  -1.063  1.00  0.00     0.344 C 
HETATM   10  O2  UNL     1      -0.090  -1.288  -2.290  1.00  0.00    -0.245 OA
HETATM   11  N3  UNL     1      -1.657  -0.693  -0.676  1.00  0.00    -0.202 N 
HETATM   12  C7  UNL     1      -2.313  -1.176   0.549  1.00  0.00     0.162 C 
HETATM   13  C8  UNL     1      -2.566  -0.042   1.558  1.00  0.00     0.027 C 
HETATM   14  C9  UNL     1      -2.815   1.323   0.909  1.00  0.00     0.046 C 
HETATM   15  C10 UNL     1      -3.885   1.251  -0.151  1.00  0.00     0.016 A 
HETATM   16  C11 UNL     1      -5.147   1.840   0.062  1.00  0.00     0.125 A 
HETATM   17  F1  UNL     1      -5.448   2.431   1.246  1.00  0.00    -0.205 F 
HETATM   18  C12 UNL     1      -6.106   1.834  -0.955  1.00  0.00     0.043 A 
HETATM   19  C13 UNL     1      -5.818   1.248  -2.188  1.00  0.00     0.006 A 
HETATM   20  C14 UNL     1      -4.576   0.648  -2.404  1.00  0.00     0.040 A 
HETATM   21  C15 UNL     1      -3.615   0.620  -1.388  1.00  0.00     0.108 A 
HETATM   22  O3  UNL     1      -2.397  -0.028  -1.642  1.00  0.00    -0.231 OA
HETATM   23  C16 UNL     1       0.870  -0.648   1.078  1.00  0.00     0.131 C 
HETATM   24  C17 UNL     1       2.373  -0.496   1.383  1.00  0.00     0.061 C 
HETATM   25  C18 UNL     1       4.702  -0.224   0.350  1.00  0.00     0.097 A 
ENDROOT
TORSDOF 0
