REMARK  2 active torsions:
REMARK  status: ('A' for Active; 'I' for Inactive)
REMARK    1  A    between atoms: C11_13  and  C12_14 
REMARK       I    between atoms: N1_22  and  C20_23 
REMARK    2  A    between atoms: C20_23  and  C21_25 
ROOT
HETATM    1  O1  UNL     1      -0.939   3.376  -3.038  1.00  0.00    -0.290 OA
HETATM    2  C1  UNL     1      -0.944   2.943  -1.854  1.00  0.00     0.178 C 
HETATM    3  C2  UNL     1      -1.617   3.737  -0.803  1.00  0.00     0.025 A 
HETATM    4  C3  UNL     1      -1.339   5.112  -0.727  1.00  0.00     0.058 A 
HETATM    5  C4  UNL     1      -1.954   5.910   0.239  1.00  0.00     0.117 A 
HETATM    6  F1  UNL     1      -1.666   7.233   0.308  1.00  0.00    -0.206 F 
HETATM    7  C5  UNL     1      -2.860   5.347   1.135  1.00  0.00     0.043 A 
HETATM    8  C6  UNL     1      -3.164   3.986   1.061  1.00  0.00     0.016 A 
HETATM    9  C7  UNL     1      -2.560   3.164   0.090  1.00  0.00    -0.010 A 
HETATM   10  C8  UNL     1      -2.946   1.727   0.015  1.00  0.00     0.002 A 
HETATM   11  C9  UNL     1      -4.295   1.352   0.145  1.00  0.00     0.015 A 
HETATM   12  C10 UNL     1      -4.665   0.005   0.134  1.00  0.00     0.013 A 
HETATM   13  C11 UNL     1      -3.694  -1.001  -0.003  1.00  0.00    -0.024 A 
HETATM   14  C18 UNL     1      -2.347  -0.628  -0.137  1.00  0.00     0.043 A 
HETATM   15  C19 UNL     1      -1.973   0.722  -0.139  1.00  0.00     0.050 A 
HETATM   16  N1  UNL     1      -0.592   1.068  -0.293  1.00  0.00    -0.306 N 
HETATM   17  C20 UNL     1       0.339   0.715   0.745  1.00  0.00     0.258 C 
HETATM   18  O2  UNL     1       0.010   0.887   1.951  1.00  0.00    -0.267 OA
HETATM   19  C33 UNL     1      -0.151   1.706  -1.537  1.00  0.00     0.216 C 
ENDROOT
BRANCH  17  20
HETATM   20  C21 UNL     1       1.666   0.138   0.433  1.00  0.00     0.034 A 
HETATM   21  C22 UNL     1       1.843  -0.682  -0.713  1.00  0.00     0.018 A 
HETATM   22  C23 UNL     1       3.096  -1.246  -1.010  1.00  0.00     0.015 A 
HETATM   23  C24 UNL     1       4.148  -0.980  -0.140  1.00  0.00     0.003 A 
HETATM   24  C25 UNL     1       3.989  -0.196   0.982  1.00  0.00     0.044 A 
HETATM   25  C32 UNL     1       5.467  -1.375  -0.147  1.00  0.00     0.003 A 
HETATM   26  C26 UNL     1       2.758   0.374   1.300  1.00  0.00     0.047 A 
HETATM   27  N2  UNL     1       5.144  -0.080   1.674  1.00  0.00    -0.355 N 
HETATM   28  C27 UNL     1       6.041  -0.807   0.972  1.00  0.00     0.043 A 
HETATM   29  H15 UNL     1       5.307   0.452   2.558  1.00  0.00     0.166 HD
HETATM   30  C28 UNL     1       7.387  -1.004   1.274  1.00  0.00     0.030 A 
HETATM   31  C29 UNL     1       8.149  -1.804   0.402  1.00  0.00     0.002 A 
HETATM   32  C30 UNL     1       7.556  -2.386  -0.742  1.00  0.00     0.001 A 
HETATM   33  C31 UNL     1       6.195  -2.172  -1.028  1.00  0.00     0.014 A 
ENDBRANCH  17  20
BRANCH  13  34
HETATM   34  C12 UNL     1      -4.086  -2.434  -0.009  1.00  0.00    -0.026 A 
HETATM   35  C13 UNL     1      -5.078  -2.909   0.870  1.00  0.00     0.012 A 
HETATM   36  C14 UNL     1      -5.441  -4.259   0.865  1.00  0.00     0.001 A 
HETATM   37  C15 UNL     1      -4.822  -5.149  -0.015  1.00  0.00     0.000 A 
HETATM   38  C16 UNL     1      -3.837  -4.690  -0.893  1.00  0.00     0.001 A 
HETATM   39  C17 UNL     1      -3.469  -3.341  -0.892  1.00  0.00     0.012 A 
ENDBRANCH  13  34
TORSDOF 2
