REMARK  4 active torsions:
REMARK  status: ('A' for Active; 'I' for Inactive)
REMARK       I    between atoms: N2_9  and  C7_10 
REMARK    1  A    between atoms: C7_10  and  C8_12 
REMARK    2  A    between atoms: C8_12  and  S1_13 
REMARK    3  A    between atoms: S1_13  and  C9_14 
REMARK    4  A    between atoms: C13_19  and  C14_20 
ROOT
HETATM    1  C8  UNL     1      -0.152  -0.135   0.084  1.00  0.00     0.183 C 
ENDROOT
BRANCH   1   2
HETATM    2  C7  UNL     1       0.829   0.730   0.822  1.00  0.00     0.229 C 
HETATM    3  N2  UNL     1       2.246   0.661   0.554  1.00  0.00    -0.345 N 
HETATM    4  C2  UNL     1       3.193   0.798   1.680  1.00  0.00     0.101 C 
HETATM    5  C6  UNL     1       2.721   0.462  -0.826  1.00  0.00     0.135 C 
HETATM    6  C1  UNL     1       4.097   2.028   1.515  1.00  0.00     0.034 C 
HETATM    7  C3  UNL     1       3.989  -0.501   1.908  1.00  0.00     0.147 C 
HETATM    8  N1  UNL     1       5.023  -0.709   0.895  1.00  0.00    -0.359 N 
HETATM    9  C4  UNL     1       4.733  -0.974  -0.482  1.00  0.00     0.219 C 
HETATM   10  H7  UNL     1       6.022  -0.718   1.203  1.00  0.00     0.162 HD
HETATM   11  O1  UNL     1       5.680  -1.235  -1.272  1.00  0.00    -0.274 OA
HETATM   12  C5  UNL     1       3.330  -0.930  -1.009  1.00  0.00     0.122 C 
HETATM   13  O2  UNL     1       0.394   1.555   1.672  1.00  0.00    -0.273 OA
ENDBRANCH   1   2
BRANCH   1  14
HETATM   14  S1  UNL     1      -1.311  -0.914   1.257  1.00  0.00    -0.100 SA
BRANCH  14  15
HETATM   15  C9  UNL     1      -2.241  -1.748  -0.036  1.00  0.00     0.104 A 
HETATM   16  N3  UNL     1      -1.866  -3.008  -0.388  1.00  0.00    -0.253 NA
HETATM   17  C10 UNL     1      -2.484  -3.694  -1.384  1.00  0.00     0.118 A 
HETATM   18  C11 UNL     1      -3.533  -3.105  -2.090  1.00  0.00     0.020 A 
HETATM   19  C12 UNL     1      -3.941  -1.814  -1.756  1.00  0.00     0.016 A 
HETATM   20  C13 UNL     1      -3.308  -1.119  -0.715  1.00  0.00     0.010 A 
BRANCH  20  21
HETATM   21  C14 UNL     1      -3.757   0.250  -0.377  1.00  0.00    -0.023 A 
HETATM   22  C15 UNL     1      -4.209   0.555   0.918  1.00  0.00     0.012 A 
HETATM   23  C16 UNL     1      -4.633   1.851   1.228  1.00  0.00     0.001 A 
HETATM   24  C17 UNL     1      -4.615   2.848   0.249  1.00  0.00     0.000 A 
HETATM   25  C18 UNL     1      -4.178   2.549  -1.044  1.00  0.00     0.001 A 
HETATM   26  C19 UNL     1      -3.754   1.254  -1.359  1.00  0.00     0.012 A 
ENDBRANCH  20  21
ENDBRANCH  14  15
ENDBRANCH   1  14
TORSDOF 4
