REMARK  6 active torsions:
REMARK  status: ('A' for Active; 'I' for Inactive)
REMARK    1  A    between atoms: N1_2  and  C2_3 
REMARK       I    between atoms: N1_2  and  C16_22 
REMARK    2  A    between atoms: C2_3  and  C3_4 
REMARK    3  A    between atoms: C6_7  and  N2_8 
REMARK       I    between atoms: N2_8  and  C7_9 
REMARK       I    between atoms: C7_9  and  N3_11 
REMARK    4  A    between atoms: C16_22  and  C17_24 
REMARK    5  A    between atoms: C17_24  and  O3_25 
REMARK    6  A    between atoms: C17_24  and  C18_26 
ROOT
HETATM    1  C3  UNL     1      -1.819  -0.200  -0.810  1.00  0.00    -0.040 A 
HETATM    2  C4  UNL     1      -1.192   0.591  -1.786  1.00  0.00     0.011 A 
HETATM    3  C5  UNL     1       0.167   0.902  -1.682  1.00  0.00     0.030 A 
HETATM    4  C6  UNL     1       0.925   0.421  -0.605  1.00  0.00     0.036 A 
HETATM    5  C14 UNL     1       0.292  -0.333   0.394  1.00  0.00     0.030 A 
HETATM    6  C15 UNL     1      -1.069  -0.637   0.296  1.00  0.00     0.011 A 
ENDROOT
BRANCH   1   7
HETATM    7  C2  UNL     1      -3.296  -0.499  -0.931  1.00  0.00     0.164 C 
BRANCH   7   8
HETATM    8  N1  UNL     1      -3.645  -1.798  -0.331  1.00  0.00    -0.350 N 
HETATM    9  C1  UNL     1      -3.176  -3.010  -1.012  1.00  0.00     0.153 C 
HETATM   10  C16 UNL     1      -4.411  -1.953   0.892  1.00  0.00     0.253 C 
HETATM   11  O2  UNL     1      -4.710  -3.116   1.279  1.00  0.00    -0.270 OA
BRANCH  10  12
HETATM   12  C17 UNL     1      -4.878  -0.798   1.763  1.00  0.00     0.243 C 
BRANCH  12  13
HETATM   13  O3  UNL     1      -3.774  -0.145   2.343  1.00  0.00    -0.381 OA
HETATM   14  H22 UNL     1      -3.383   0.473   1.676  1.00  0.00     0.211 HD
ENDBRANCH  12  13
BRANCH  12  15
HETATM   15  C18 UNL     1      -5.853   0.156   1.082  1.00  0.00    -0.021 A 
HETATM   16  C19 UNL     1      -6.731  -0.298   0.075  1.00  0.00     0.010 A 
HETATM   17  C20 UNL     1      -7.662   0.574  -0.499  1.00  0.00     0.001 A 
HETATM   18  C21 UNL     1      -7.752   1.898  -0.058  1.00  0.00     0.000 A 
HETATM   19  C22 UNL     1      -6.913   2.351   0.962  1.00  0.00     0.001 A 
HETATM   20  C23 UNL     1      -5.976   1.486   1.536  1.00  0.00     0.010 A 
ENDBRANCH  12  15
ENDBRANCH  10  12
ENDBRANCH   7   8
ENDBRANCH   1   7
BRANCH   4  21
HETATM   21  N2  UNL     1       2.320   0.753  -0.514  1.00  0.00    -0.309 N 
HETATM   22  C7  UNL     1       3.313  -0.159  -0.005  1.00  0.00     0.322 C 
HETATM   23  O1  UNL     1       3.026  -1.383   0.102  1.00  0.00    -0.247 OA
HETATM   24  N3  UNL     1       4.635   0.300   0.367  1.00  0.00    -0.334 N 
HETATM   25  C8  UNL     1       5.108   1.615  -0.109  1.00  0.00     0.127 C 
HETATM   26  C13 UNL     1       5.484  -0.572   1.197  1.00  0.00     0.133 C 
HETATM   27  C9  UNL     1       6.604   1.889   0.116  1.00  0.00     0.026 C 
HETATM   28  C10 UNL     1       7.513   0.907  -0.642  1.00  0.00     0.081 C 
HETATM   29  C11 UNL     1       7.809  -0.388   0.131  1.00  0.00     0.245 C 
HETATM   30  F1  UNL     1       8.727  -1.126  -0.598  1.00  0.00    -0.206 F 
HETATM   31  F2  UNL     1       8.386  -0.086   1.355  1.00  0.00    -0.206 F 
HETATM   32  C12 UNL     1       6.560  -1.257   0.343  1.00  0.00     0.099 C 
HETATM   33  H8  UNL     1       2.618   1.669  -0.913  1.00  0.00     0.170 HD
ENDBRANCH   4  21
TORSDOF 6
