REMARK  6 active torsions:
REMARK  status: ('A' for Active; 'I' for Inactive)
REMARK       I    between atoms: C1_2  and  N1_3 
REMARK    1  A    between atoms: C1_2  and  C22_27 
REMARK       I    between atoms: N1_3  and  C2_4 
REMARK    2  A    between atoms: C2_4  and  C3_6 
REMARK    3  A    between atoms: C24_29  and  C45_51 
REMARK    4  A    between atoms: C25_30  and  C28_33 
REMARK    5  A    between atoms: C33_38  and  C34_39 
REMARK    6  A    between atoms: C39_44  and  C40_45 
ROOT
HETATM    1  O1  UNL     1      -0.592  -3.515  -1.144  1.00  0.00    -0.267 OA
HETATM    2  C1  UNL     1      -0.454  -2.312  -0.789  1.00  0.00     0.258 C 
HETATM    3  N1  UNL     1       0.757  -1.601  -1.104  1.00  0.00    -0.288 N 
HETATM    4  C2  UNL     1       2.005  -2.261  -1.390  1.00  0.00     0.275 C 
HETATM    5  O2  UNL     1       2.048  -3.522  -1.444  1.00  0.00    -0.266 OA
HETATM    6  H1  UNL     1       0.695  -0.564  -1.180  1.00  0.00     0.172 HD
ENDROOT
BRANCH   2   7
HETATM    7  C22 UNL     1      -1.559  -1.636  -0.067  1.00  0.00     0.033 A 
HETATM    8  C23 UNL     1      -2.871  -2.128  -0.170  1.00  0.00     0.030 A 
HETATM    9  C24 UNL     1      -3.925  -1.523   0.534  1.00  0.00    -0.010 A 
HETATM   10  C25 UNL     1      -3.659  -0.419   1.372  1.00  0.00    -0.014 A 
HETATM   11  C26 UNL     1      -2.347   0.064   1.483  1.00  0.00     0.014 A 
HETATM   12  C27 UNL     1      -1.308  -0.531   0.763  1.00  0.00     0.018 A 
BRANCH   9  13
HETATM   13  C45 UNL     1      -5.289  -2.089   0.405  1.00  0.00     0.025 A 
HETATM   14  C40 UNL     1      -6.327  -1.360  -0.221  1.00  0.00    -0.011 A 
HETATM   15  C41 UNL     1      -7.588  -1.955  -0.386  1.00  0.00     0.013 A 
HETATM   16  C42 UNL     1      -7.823  -3.255   0.069  1.00  0.00     0.004 A 
HETATM   17  C43 UNL     1      -6.803  -3.972   0.694  1.00  0.00     0.043 A 
HETATM   18  C44 UNL     1      -5.540  -3.397   0.860  1.00  0.00     0.128 A 
HETATM   19  F1  UNL     1      -4.561  -4.114   1.467  1.00  0.00    -0.205 F 
BRANCH  14  20
HETATM   20  C39 UNL     1      -6.106   0.008  -0.747  1.00  0.00    -0.014 A 
HETATM   21  C34 UNL     1      -5.860   1.100   0.116  1.00  0.00    -0.014 A 
HETATM   22  C35 UNL     1      -5.714   2.390  -0.425  1.00  0.00     0.013 A 
HETATM   23  C36 UNL     1      -5.796   2.594  -1.804  1.00  0.00     0.001 A 
HETATM   24  C37 UNL     1      -6.037   1.514  -2.656  1.00  0.00     0.001 A 
HETATM   25  C38 UNL     1      -6.196   0.229  -2.132  1.00  0.00     0.013 A 
BRANCH  21  26
HETATM   26  C33 UNL     1      -5.785   0.921   1.584  1.00  0.00    -0.014 A 
HETATM   27  C28 UNL     1      -4.727   0.203   2.185  1.00  0.00    -0.014 A 
HETATM   28  C29 UNL     1      -4.672   0.096   3.585  1.00  0.00     0.013 A 
HETATM   29  C30 UNL     1      -5.656   0.687   4.380  1.00  0.00     0.001 A 
HETATM   30  C31 UNL     1      -6.701   1.396   3.787  1.00  0.00     0.001 A 
HETATM   31  C32 UNL     1      -6.762   1.517   2.397  1.00  0.00     0.013 A 
ENDBRANCH  21  26
ENDBRANCH  14  20
ENDBRANCH   9  13
ENDBRANCH   2   7
BRANCH   4  32
HETATM   32  C3  UNL     1       3.254  -1.495  -1.638  1.00  0.00     0.104 A 
HETATM   33  C4  UNL     1       3.392  -0.164  -1.213  1.00  0.00     0.048 A 
HETATM   34  C5  UNL     1       4.586   0.530  -1.443  1.00  0.00    -0.011 A 
HETATM   35  C6  UNL     1       5.653  -0.114  -2.107  1.00  0.00     0.021 A 
HETATM   36  C21 UNL     1       4.735   1.886  -0.868  1.00  0.00    -0.014 A 
HETATM   37  C7  UNL     1       5.486  -1.461  -2.489  1.00  0.00     0.253 A 
HETATM   38  C8  UNL     1       6.940   0.630  -2.435  1.00  0.00     0.050 C 
HETATM   39  O3  UNL     1       6.425  -2.087  -3.054  1.00  0.00    -0.268 OA
HETATM   40  N2  UNL     1       4.310  -2.105  -2.252  1.00  0.00    -0.319 N 
HETATM   41  H3  UNL     1       4.224  -3.099  -2.565  1.00  0.00     0.169 HD
HETATM   42  C9  UNL     1       7.843   0.985  -1.227  1.00  0.00     0.044 C 
HETATM   43  C10 UNL     1       7.402   0.404   0.099  1.00  0.00    -0.047 A 
HETATM   44  C11 UNL     1       8.043  -0.734   0.611  1.00  0.00     0.008 A 
HETATM   45  C15 UNL     1       6.348   0.996   0.836  1.00  0.00    -0.019 A 
HETATM   46  C12 UNL     1       7.669  -1.259   1.851  1.00  0.00     0.001 A 
HETATM   47  C13 UNL     1       6.648  -0.656   2.588  1.00  0.00     0.001 A 
HETATM   48  C14 UNL     1       5.987   0.465   2.082  1.00  0.00     0.013 A 
HETATM   49  C16 UNL     1       5.552   2.102   0.263  1.00  0.00    -0.014 A 
HETATM   50  C17 UNL     1       5.599   3.374   0.854  1.00  0.00     0.013 A 
HETATM   51  C18 UNL     1       4.851   4.427   0.318  1.00  0.00     0.001 A 
HETATM   52  C19 UNL     1       4.044   4.215  -0.803  1.00  0.00     0.001 A 
HETATM   53  C20 UNL     1       3.979   2.948  -1.389  1.00  0.00     0.013 A 
ENDBRANCH   4  32
TORSDOF 6
