REMARK  4 active torsions:
REMARK  status: ('A' for Active; 'I' for Inactive)
REMARK    1  A    between atoms: C2_2  and  C3_3 
REMARK       I    between atoms: C3_3  and  N1_5 
REMARK       I    between atoms: N2_9  and  C7_10 
REMARK       I    between atoms: C7_10  and  N3_12 
REMARK    2  A    between atoms: N3_12  and  C8_13 
REMARK    3  A    between atoms: C8_13  and  C9_14 
REMARK    4  A    between atoms: C14_19  and  N4_20 
ROOT
HETATM    1  C3  UNL     1       4.552  -0.739  -0.607  1.00  0.00     0.219 C 
HETATM    2  O1  UNL     1       5.057  -1.894  -0.535  1.00  0.00    -0.273 OA
HETATM    3  N1  UNL     1       3.657  -0.422  -1.696  1.00  0.00    -0.351 N 
HETATM    4  C4  UNL     1       2.942  -1.490  -2.409  1.00  0.00     0.127 C 
HETATM    5  C5  UNL     1       1.421  -1.276  -2.340  1.00  0.00     0.040 C 
HETATM    6  C6  UNL     1       0.963  -0.869  -0.928  1.00  0.00     0.129 C 
HETATM    7  N2  UNL     1       1.398   0.484  -0.507  1.00  0.00    -0.333 N 
HETATM    8  C7  UNL     1       0.944   0.961   0.780  1.00  0.00     0.318 C 
HETATM    9  O2  UNL     1       0.838   2.202   0.994  1.00  0.00    -0.247 OA
HETATM   10  N3  UNL     1       0.555   0.041   1.810  1.00  0.00    -0.339 N 
HETATM   11  C18 UNL     1       2.004   1.445  -1.458  1.00  0.00     0.147 C 
HETATM   12  C19 UNL     1       3.348   0.969  -2.053  1.00  0.00     0.145 C 
HETATM   13  H12 UNL     1       0.965  -0.917   1.836  1.00  0.00     0.164 HD
ENDROOT
BRANCH  10  14
HETATM   14  C8  UNL     1      -0.487   0.366   2.782  1.00  0.00     0.162 C 
BRANCH  14  15
HETATM   15  C9  UNL     1      -1.783   0.665   2.071  1.00  0.00    -0.038 A 
HETATM   16  C10 UNL     1      -2.380   1.930   2.173  1.00  0.00     0.009 A 
HETATM   17  C11 UNL     1      -3.541   2.222   1.452  1.00  0.00     0.009 A 
HETATM   18  C12 UNL     1      -4.124   1.256   0.618  1.00  0.00    -0.035 A 
HETATM   19  C13 UNL     1      -5.341   1.607  -0.193  1.00  0.00     0.050 C 
HETATM   20  C14 UNL     1      -3.519  -0.013   0.503  1.00  0.00     0.036 A 
HETATM   21  C17 UNL     1      -2.364  -0.304   1.242  1.00  0.00     0.038 A 
BRANCH  20  22
HETATM   22  N4  UNL     1      -4.043  -0.997  -0.399  1.00  0.00    -0.389 N 
HETATM   23  C15 UNL     1      -4.708  -2.176   0.151  1.00  0.00     0.149 C 
HETATM   24  C16 UNL     1      -3.567  -1.012  -1.781  1.00  0.00     0.149 C 
ENDBRANCH  20  22
ENDBRANCH  14  15
ENDBRANCH  10  14
BRANCH   1  25
HETATM   25  C2  UNL     1       4.930   0.301   0.421  1.00  0.00     0.098 C 
HETATM   26  C1  UNL     1       5.516  -0.305   1.696  1.00  0.00     0.014 C 
ENDBRANCH   1  25
TORSDOF 4
