REMARK  2 active torsions:
REMARK  status: ('A' for Active; 'I' for Inactive)
REMARK    1  A    between atoms: C1_2  and  C2_3 
REMARK       I    between atoms: C1_2  and  N4_19 
REMARK    2  A    between atoms: C14_22  and  C15_23 
ROOT
HETATM    1  C2  UNL     1       0.773  -0.683  -0.732  1.00  0.00     0.150 A 
HETATM    2  C3  UNL     1      -0.470  -1.006  -1.253  1.00  0.00     0.071 A 
HETATM    3  C4  UNL     1      -1.369  -0.547  -0.308  1.00  0.00     0.068 A 
HETATM    4  N1  UNL     1      -0.675  -0.003   0.709  1.00  0.00    -0.260 N 
HETATM    5  N2  UNL     1       0.623  -0.080   0.465  1.00  0.00    -0.166 NA
HETATM    6  C5  UNL     1      -1.241   0.556   1.926  1.00  0.00     0.254 C 
HETATM    7  C6  UNL     1      -2.105   1.719   1.570  1.00  0.00     0.242 C 
HETATM    8  O2  UNL     1      -1.831   2.855   2.040  1.00  0.00    -0.271 OA
HETATM    9  N3  UNL     1      -3.241   1.570   0.707  1.00  0.00    -0.325 N 
HETATM   10  C7  UNL     1      -3.714   0.323   0.158  1.00  0.00     0.047 A 
HETATM   11  C8  UNL     1      -5.102   0.145   0.039  1.00  0.00     0.032 A 
HETATM   12  C9  UNL     1      -5.631  -1.005  -0.549  1.00  0.00     0.026 A 
HETATM   13  C10 UNL     1      -4.779  -1.989  -1.046  1.00  0.00     0.035 A 
HETATM   14 CL1  UNL     1      -5.446  -3.432  -1.788  1.00  0.00    -0.084 Cl
HETATM   15  C11 UNL     1      -3.395  -1.825  -0.956  1.00  0.00     0.040 A 
HETATM   16  C12 UNL     1      -2.843  -0.677  -0.358  1.00  0.00     0.021 A 
HETATM   17  H4  UNL     1      -3.854   2.409   0.594  1.00  0.00     0.169 HD
ENDROOT
BRANCH   1  18
HETATM   18  C1  UNL     1       2.072  -0.974  -1.369  1.00  0.00     0.309 C 
HETATM   19  O1  UNL     1       2.092  -1.627  -2.447  1.00  0.00    -0.262 OA
HETATM   20  N4  UNL     1       3.312  -0.540  -0.790  1.00  0.00    -0.155 N 
HETATM   21  N5  UNL     1       4.547  -0.925  -1.307  1.00  0.00    -0.168 NA
HETATM   22  N6  UNL     1       3.409   0.295   0.336  1.00  0.00    -0.195 NA
HETATM   23  C13 UNL     1       5.461  -0.413  -0.569  1.00  0.00     0.143 A 
HETATM   24  C14 UNL     1       4.868   0.375   0.556  1.00  0.00     0.228 A 
HETATM   25  H10 UNL     1       3.028   1.228   0.052  1.00  0.00     0.150 HD
BRANCH  24  26
HETATM   26  C15 UNL     1       5.394   1.820   0.574  1.00  0.00     0.409 C 
HETATM   27  F1  UNL     1       6.757   1.818   0.813  1.00  0.00    -0.169 F 
HETATM   28  F2  UNL     1       5.151   2.444  -0.638  1.00  0.00    -0.169 F 
HETATM   29  F3  UNL     1       4.769   2.531   1.582  1.00  0.00    -0.169 F 
ENDBRANCH  24  26
ENDBRANCH   1  18
TORSDOF 2
