REMARK  5 active torsions:
REMARK  status: ('A' for Active; 'I' for Inactive)
REMARK    1  A    between atoms: C3_4  and  O1_5 
REMARK    2  A    between atoms: C6_8  and  N2_9 
REMARK    3  A    between atoms: C10_13  and  C11_14 
REMARK    4  A    between atoms: C11_14  and  N3_15 
REMARK       I    between atoms: N3_15  and  C12_16 
REMARK    5  A    between atoms: C12_16  and  C13_18 
ROOT
HETATM    1  C11 UNL     1      -1.075   1.593   0.455  1.00  0.00     0.147 C 
ENDROOT
BRANCH   1   2
HETATM    2  C10 UNL     1      -1.295   0.908  -0.906  1.00  0.00     0.103 C 
HETATM    3  N2  UNL     1      -2.719   0.767  -1.180  1.00  0.00    -0.359 N 
HETATM    4  C7  UNL     1      -3.074   1.263  -2.501  1.00  0.00     0.125 C 
HETATM    5  C8  UNL     1      -1.756   1.573  -3.194  1.00  0.00     0.022 C 
HETATM    6  C9  UNL     1      -0.734   1.725  -2.075  1.00  0.00     0.028 C 
BRANCH   3   7
HETATM    7  C6  UNL     1      -3.554  -0.147  -0.444  1.00  0.00     0.138 A 
HETATM    8  C4  UNL     1      -4.883   0.175  -0.090  1.00  0.00     0.037 A 
HETATM    9  C3  UNL     1      -5.638  -0.803   0.581  1.00  0.00     0.173 A 
HETATM   10  C5  UNL     1      -5.485   1.516  -0.415  1.00  0.00     0.057 C 
HETATM   11  N1  UNL     1      -5.067  -1.988   0.922  1.00  0.00    -0.209 NA
HETATM   12  C2  UNL     1      -3.771  -2.254   0.625  1.00  0.00     0.127 A 
HETATM   13  C1  UNL     1      -3.176  -3.570   0.995  1.00  0.00     0.093 C 
HETATM   14  N4  UNL     1      -3.036  -1.346  -0.064  1.00  0.00    -0.216 NA
BRANCH   9  15
HETATM   15  O1  UNL     1      -6.972  -0.570   0.909  1.00  0.00    -0.344 OA
HETATM   16  H4  UNL     1      -7.518  -1.274   1.389  1.00  0.00     0.219 HD
ENDBRANCH   9  15
ENDBRANCH   3   7
ENDBRANCH   1   2
BRANCH   1  17
HETATM   17  N3  UNL     1       0.350   1.793   0.717  1.00  0.00    -0.358 N 
HETATM   18  C12 UNL     1       1.245   0.706   0.994  1.00  0.00     0.226 C 
HETATM   19  O2  UNL     1       0.787  -0.457   1.167  1.00  0.00    -0.273 OA
HETATM   20  H17 UNL     1       0.724   2.769   0.708  1.00  0.00     0.162 HD
BRANCH  18  21
HETATM   21  C13 UNL     1       2.733   0.961   1.052  1.00  0.00     0.111 C 
HETATM   22  C14 UNL     1       3.242   1.515  -0.318  1.00  0.00     0.019 C 
HETATM   23  C15 UNL     1       4.642   1.037  -0.734  1.00  0.00     0.001 C 
HETATM   24  C16 UNL     1       4.619  -0.362  -1.377  1.00  0.00     0.005 C 
HETATM   25  C17 UNL     1       3.679  -1.355  -0.676  1.00  0.00     0.039 C 
HETATM   26  C18 UNL     1       3.892  -1.350   0.818  1.00  0.00    -0.051 A 
HETATM   27  C19 UNL     1       4.570  -2.430   1.411  1.00  0.00     0.007 A 
HETATM   28  C23 UNL     1       3.484  -0.251   1.617  1.00  0.00    -0.039 A 
HETATM   29  C20 UNL     1       4.821  -2.442   2.780  1.00  0.00     0.001 A 
HETATM   30  C21 UNL     1       4.403  -1.376   3.575  1.00  0.00     0.001 A 
HETATM   31  C22 UNL     1       3.735  -0.294   3.001  1.00  0.00     0.008 A 
ENDBRANCH  18  21
ENDBRANCH   1  17
TORSDOF 5
