REMARK  6 active torsions:
REMARK  status: ('A' for Active; 'I' for Inactive)
REMARK    1  A    between atoms: N1_1  and  C1_2 
REMARK    2  A    between atoms: C1_2  and  C2_3 
REMARK    3  A    between atoms: C4_5  and  C5_6 
REMARK       I    between atoms: C5_6  and  N2_8 
REMARK    4  A    between atoms: C9_12  and  C10_13 
REMARK    5  A    between atoms: C16_19  and  O2_20 
REMARK    6  A    between atoms: C19_23  and  O3_24 
ROOT
HETATM    1  C5  UNL     1      -1.429   0.915   1.130  1.00  0.00     0.254 C 
HETATM    2  O1  UNL     1      -1.491   1.955   1.841  1.00  0.00    -0.267 OA
HETATM    3  N2  UNL     1      -0.163   0.247   0.963  1.00  0.00    -0.345 N 
HETATM    4  C6  UNL     1      -0.049  -1.173   1.325  1.00  0.00     0.126 C 
HETATM    5  C7  UNL     1       0.708  -1.988   0.267  1.00  0.00     0.021 C 
HETATM    6  C8  UNL     1       2.201  -1.631   0.204  1.00  0.00     0.013 C 
HETATM    7  C9  UNL     1       2.521  -0.486  -0.788  1.00  0.00     0.049 C 
HETATM    8  C16 UNL     1       1.607   0.778  -0.679  1.00  0.00     0.144 C 
HETATM    9  C17 UNL     1       1.049   1.047   0.734  1.00  0.00     0.158 C 
ENDROOT
BRANCH   1  10
HETATM   10  C4  UNL     1      -2.661   0.399   0.489  1.00  0.00     0.035 A 
HETATM   11  C3  UNL     1      -3.918   0.669   1.050  1.00  0.00     0.027 A 
HETATM   12  C2  UNL     1      -5.094   0.182   0.456  1.00  0.00    -0.005 A 
HETATM   13  C20 UNL     1      -5.007  -0.560  -0.742  1.00  0.00     0.075 A 
HETATM   14  C19 UNL     1      -3.752  -0.818  -1.314  1.00  0.00     0.088 A 
HETATM   15 CL1  UNL     1      -6.451  -1.165  -1.555  1.00  0.00    -0.081 Cl
HETATM   16  C18 UNL     1      -2.589  -0.340  -0.700  1.00  0.00     0.055 A 
BRANCH  12  17
HETATM   17  C1  UNL     1      -6.427   0.516   1.089  1.00  0.00     0.307 C 
BRANCH  17  18
HETATM   18  N1  UNL     1      -6.989   1.738   0.518  1.00  0.00     0.082 N 
HETATM   19  H1  UNL     1      -7.106   1.608  -0.513  1.00  0.00     0.313 HD
HETATM   20  H2  UNL     1      -6.309   2.520   0.663  1.00  0.00     0.313 HD
ENDBRANCH  17  18
ENDBRANCH  12  17
BRANCH  14  21
HETATM   21  O3  UNL     1      -3.666  -1.549  -2.499  1.00  0.00    -0.359 OA
HETATM   22  H23 UNL     1      -2.774  -1.750  -2.935  1.00  0.00     0.217 HD
ENDBRANCH  14  21
ENDBRANCH   1  10
BRANCH   8  23
HETATM   23  O2  UNL     1       2.295   1.914  -1.145  1.00  0.00    -0.393 OA
HETATM   24  H19 UNL     1       1.611   2.580  -1.418  1.00  0.00     0.210 HD
ENDBRANCH   8  23
BRANCH   7  25
HETATM   25  C10 UNL     1       4.008  -0.150  -0.737  1.00  0.00    -0.051 A 
HETATM   26  C11 UNL     1       4.808  -0.335  -1.881  1.00  0.00     0.007 A 
HETATM   27  C12 UNL     1       6.170  -0.021  -1.853  1.00  0.00     0.001 A 
HETATM   28  C13 UNL     1       6.750   0.482  -0.687  1.00  0.00     0.000 A 
HETATM   29  C14 UNL     1       5.968   0.673   0.454  1.00  0.00     0.001 A 
HETATM   30  C15 UNL     1       4.605   0.361   0.432  1.00  0.00     0.007 A 
ENDBRANCH   7  25
TORSDOF 6
