REMARK  5 active torsions:
REMARK  status: ('A' for Active; 'I' for Inactive)
REMARK    1  A    between atoms: C4_4  and  N1_5 
REMARK    2  A    between atoms: C6_7  and  C7_8 
REMARK    3  A    between atoms: C10_11  and  C11_12 
REMARK    4  A    between atoms: C20_21  and  C21_22 
REMARK       I    between atoms: C21_22  and  N2_24 
REMARK    5  A    between atoms: N2_24  and  C22_25 
ROOT
HETATM    1  C1  UNL     1       3.451  -2.426  -1.609  1.00  0.00     0.049 C 
HETATM    2  C2  UNL     1       2.141  -2.911  -1.045  1.00  0.00    -0.043 A 
HETATM    3  C3  UNL     1       1.976  -4.283  -0.795  1.00  0.00     0.036 A 
HETATM    4  C4  UNL     1       0.763  -4.781  -0.313  1.00  0.00     0.027 A 
HETATM    5  C5  UNL     1      -0.297  -3.905  -0.067  1.00  0.00     0.042 A 
HETATM    6  C6  UNL     1      -0.156  -2.526  -0.289  1.00  0.00    -0.007 A 
HETATM    7  C20 UNL     1       1.073  -2.018  -0.781  1.00  0.00     0.049 A 
ENDROOT
BRANCH   7   8
HETATM    8  C21 UNL     1       1.222  -0.573  -1.060  1.00  0.00     0.253 C 
HETATM    9  O1  UNL     1       0.490  -0.031  -1.932  1.00  0.00    -0.268 OA
HETATM   10  N2  UNL     1       2.157   0.213  -0.313  1.00  0.00    -0.350 N 
HETATM   11  H19 UNL     1       2.685  -0.242   0.467  1.00  0.00     0.163 HD
BRANCH  10  12
HETATM   12  C22 UNL     1       2.268   1.655  -0.520  1.00  0.00     0.115 A 
HETATM   13  C23 UNL     1       3.512   2.281   0.101  1.00  0.00     0.063 A 
HETATM   14  C24 UNL     1       3.963   3.740   0.211  1.00  0.00     0.279 C 
HETATM   15  C27 UNL     1       3.411   2.052  -1.421  1.00  0.00     0.115 A 
HETATM   16  N3  UNL     1       5.208   3.996  -0.562  1.00  0.00     0.100 N 
HETATM   17  C25 UNL     1       6.176   2.873  -0.583  1.00  0.00     0.353 C 
HETATM   18  H24 UNL     1       4.984   4.282  -1.544  1.00  0.00     0.317 HD
HETATM   19  C26 UNL     1       5.870   1.762  -1.587  1.00  0.00     0.254 C 
HETATM   20  O2  UNL     1       6.830   1.252  -2.221  1.00  0.00    -0.271 OA
HETATM   21  N4  UNL     1       4.546   1.215  -1.759  1.00  0.00    -0.352 N 
HETATM   22  H26 UNL     1       4.401   0.349  -2.320  1.00  0.00     0.163 HD
ENDBRANCH  10  12
ENDBRANCH   7   8
BRANCH   6  23
HETATM   23  C7  UNL     1      -1.301  -1.639   0.034  1.00  0.00    -0.025 A 
HETATM   24  C8  UNL     1      -2.556  -1.866  -0.553  1.00  0.00     0.013 A 
HETATM   25  C9  UNL     1      -3.644  -1.051  -0.231  1.00  0.00     0.013 A 
HETATM   26  C10 UNL     1      -3.493   0.004   0.683  1.00  0.00    -0.025 A 
HETATM   27  C18 UNL     1      -2.243   0.220   1.285  1.00  0.00     0.013 A 
HETATM   28  C19 UNL     1      -1.155  -0.595   0.962  1.00  0.00     0.013 A 
BRANCH  26  29
HETATM   29  C11 UNL     1      -4.649   0.856   1.042  1.00  0.00    -0.020 A 
HETATM   30  C12 UNL     1      -5.074   0.884   2.381  1.00  0.00     0.013 A 
HETATM   31  C13 UNL     1      -6.180   1.646   2.759  1.00  0.00     0.001 A 
HETATM   32  C14 UNL     1      -6.876   2.389   1.805  1.00  0.00     0.001 A 
HETATM   33  C15 UNL     1      -6.460   2.382   0.473  1.00  0.00     0.007 A 
HETATM   34  C16 UNL     1      -5.337   1.636   0.078  1.00  0.00    -0.051 A 
HETATM   35  C17 UNL     1      -4.905   1.676  -1.366  1.00  0.00     0.049 C 
ENDBRANCH  26  29
ENDBRANCH   6  23
BRANCH   4  36
HETATM   36  N1  UNL     1       0.608  -6.183  -0.070  1.00  0.00    -0.399 N 
HETATM   37  H5  UNL     1       1.388  -6.849  -0.266  1.00  0.00     0.156 HD
HETATM   38  H6  UNL     1      -0.287  -6.564   0.313  1.00  0.00     0.156 HD
ENDBRANCH   4  36
TORSDOF 5
