REMARK  5 active torsions:
REMARK  status: ('A' for Active; 'I' for Inactive)
REMARK       I    between atoms: C1_2  and  N1_3 
REMARK    1  A    between atoms: C1_2  and  C8_13 
REMARK    2  A    between atoms: N1_3  and  C2_4 
REMARK    3  A    between atoms: C13_21  and  C14_22 
REMARK    4  A    between atoms: C14_22  and  C15_24 
REMARK    5  A    between atoms: C15_24  and  C16_25 
ROOT
HETATM    1  C8  UNL     1       0.517  -0.531   0.830  1.00  0.00     0.097 C 
HETATM    2  C9  UNL     1      -0.832  -0.935   0.147  1.00  0.00     0.004 C 
HETATM    3  C10 UNL     1      -0.940  -0.561  -1.355  1.00  0.00     0.027 C 
HETATM    4  C11 UNL     1      -1.019   0.942  -1.668  1.00  0.00     0.149 C 
HETATM    5  N4  UNL     1      -0.765   1.754  -0.480  1.00  0.00    -0.258 N 
HETATM    6  C12 UNL     1      -1.839   2.371   0.240  1.00  0.00     0.378 C 
HETATM    7  O3  UNL     1      -1.725   3.572   0.599  1.00  0.00    -0.237 OA
HETATM    8  O4  UNL     1      -2.980   1.660   0.628  1.00  0.00    -0.290 OA
HETATM    9  C13 UNL     1      -3.219   0.263   0.433  1.00  0.00     0.203 C 
HETATM   10  C19 UNL     1      -2.087  -0.614   1.038  1.00  0.00     0.046 C 
HETATM   11  N5  UNL     1       0.546   1.895   0.012  1.00  0.00    -0.233 NA
HETATM   12  C20 UNL     1       0.745   0.978   1.140  1.00  0.00     0.125 C 
HETATM   13  H27 UNL     1       1.239   1.711  -0.744  1.00  0.00     0.146 HD
ENDROOT
BRANCH   1  14
HETATM   14  C1  UNL     1       1.727  -1.210   0.211  1.00  0.00     0.228 C 
HETATM   15  O1  UNL     1       2.077  -2.338   0.652  1.00  0.00    -0.273 OA
HETATM   16  N1  UNL     1       2.464  -0.620  -0.870  1.00  0.00    -0.311 N 
HETATM   17  H1  UNL     1       1.952  -0.124  -1.628  1.00  0.00     0.170 HD
BRANCH  16  18
HETATM   18  C2  UNL     1       3.884  -0.753  -1.016  1.00  0.00     0.170 A 
HETATM   19  N2  UNL     1       4.480  -0.436  -2.112  1.00  0.00    -0.117 NA
HETATM   20  O2  UNL     1       5.831  -0.618  -1.973  1.00  0.00    -0.247 OA
HETATM   21  C3  UNL     1       6.198  -1.090  -0.684  1.00  0.00     0.195 A 
HETATM   22  C4  UNL     1       7.172  -0.114  -0.013  1.00  0.00     0.039 C 
HETATM   23  C7  UNL     1       4.845  -1.192   0.057  1.00  0.00     0.322 A 
HETATM   24  C5  UNL     1       6.496   1.228   0.289  1.00  0.00     0.033 C 
HETATM   25  C6  UNL     1       5.128   1.068   0.984  1.00  0.00     0.271 C 
HETATM   26  N3  UNL     1       4.803  -0.339   1.263  1.00  0.00     0.098 N 
HETATM   27  H9  UNL     1       3.850  -0.384   1.688  1.00  0.00     0.317 HD
ENDBRANCH  16  18
ENDBRANCH   1  14
BRANCH   9  28
HETATM   28  C14 UNL     1      -4.525  -0.072   1.115  1.00  0.00     0.156 C 
HETATM   29  O5  UNL     1      -4.730   0.326   2.253  1.00  0.00    -0.295 OA
BRANCH  28  30
HETATM   30  C15 UNL     1      -5.568  -0.915   0.433  1.00  0.00     0.085 C 
BRANCH  30  31
HETATM   31  C16 UNL     1      -6.760  -0.044   0.026  1.00  0.00    -0.007 A 
HETATM   32  C17 UNL     1      -7.884   0.062   1.045  1.00  0.00     0.005 A 
HETATM   33  C18 UNL     1      -8.058  -0.806  -0.192  1.00  0.00     0.005 A 
ENDBRANCH  30  31
ENDBRANCH  28  30
ENDBRANCH   9  28
TORSDOF 5
