REMARK  3 active torsions:
REMARK  status: ('A' for Active; 'I' for Inactive)
REMARK    1  A    between atoms: C4_4  and  C5_5 
REMARK       I    between atoms: C5_5  and  N1_7 
REMARK       I    between atoms: N1_7  and  C6_8 
REMARK    2  A    between atoms: C6_8  and  C7_10 
REMARK    3  A    between atoms: N2_16  and  C12_17 
ROOT
HETATM    1  C7  UNL     1       0.851  -1.023   0.774  1.00  0.00     0.066 C 
HETATM    2  C8  UNL     1       0.696  -2.065  -0.037  1.00  0.00    -0.037 C 
HETATM    3  C9  UNL     1       0.656  -1.750  -1.479  1.00  0.00     0.014 C 
HETATM    4  C10 UNL     1       1.302  -0.715  -2.063  1.00  0.00     0.075 C 
HETATM    5  C11 UNL     1       2.192   0.324  -1.434  1.00  0.00     0.252 C 
HETATM    6  O3  UNL     1       2.453   1.332  -2.144  1.00  0.00    -0.268 OA
HETATM    7  N2  UNL     1       2.790   0.234  -0.106  1.00  0.00    -0.278 N 
HETATM    8  C18 UNL     1       2.261  -0.659   0.892  1.00  0.00     0.059 C 
HETATM    9  C19 UNL     1       3.080  -1.390   1.674  1.00  0.00     0.031 C 
HETATM   10  C20 UNL     1       2.622  -2.625   2.351  1.00  0.00    -0.001 C 
HETATM   11  C21 UNL     1       1.785  -3.504   1.769  1.00  0.00    -0.022 C 
HETATM   12  C22 UNL     1       1.346  -3.391   0.320  1.00  0.00     0.066 C 
ENDROOT
BRANCH   1  13
HETATM   13  C6  UNL     1      -0.163   0.061   0.815  1.00  0.00     0.261 C 
HETATM   14  N1  UNL     1      -1.529  -0.201   0.447  1.00  0.00    -0.289 N 
HETATM   15  C5  UNL     1      -2.503   0.838   0.244  1.00  0.00     0.258 C 
HETATM   16  H5  UNL     1      -1.815  -1.191   0.281  1.00  0.00     0.172 HD
HETATM   17  O1  UNL     1      -2.124   2.030   0.083  1.00  0.00    -0.267 OA
HETATM   18  O2  UNL     1       0.173   1.207   1.220  1.00  0.00    -0.267 OA
BRANCH  15  19
HETATM   19  C4  UNL     1      -3.951   0.522   0.181  1.00  0.00     0.035 A 
HETATM   20  C3  UNL     1      -4.835   1.395  -0.482  1.00  0.00     0.024 A 
HETATM   21  C2  UNL     1      -6.208   1.114  -0.543  1.00  0.00    -0.058 A 
HETATM   22  C1  UNL     1      -7.127   2.040  -1.283  1.00  0.00     0.048 C 
HETATM   23  C25 UNL     1      -6.702  -0.055   0.055  1.00  0.00     0.049 A 
HETATM   24  C24 UNL     1      -5.835  -0.920   0.726  1.00  0.00     0.117 A 
HETATM   25  C23 UNL     1      -4.469  -0.633   0.795  1.00  0.00     0.059 A 
HETATM   26  F1  UNL     1      -6.321  -2.040   1.316  1.00  0.00    -0.206 F 
ENDBRANCH  15  19
ENDBRANCH   1  13
BRANCH   7  27
HETATM   27  C12 UNL     1       3.895   1.099   0.235  1.00  0.00     0.043 A 
HETATM   28  C13 UNL     1       5.019   1.183  -0.605  1.00  0.00     0.030 A 
HETATM   29  C14 UNL     1       6.094   2.009  -0.264  1.00  0.00     0.002 A 
HETATM   30  C15 UNL     1       6.057   2.756   0.916  1.00  0.00     0.000 A 
HETATM   31  C16 UNL     1       4.945   2.677   1.759  1.00  0.00     0.002 A 
HETATM   32  C17 UNL     1       3.868   1.851   1.422  1.00  0.00     0.030 A 
ENDBRANCH   7  27
TORSDOF 3
