REMARK  4 active torsions:
REMARK  status: ('A' for Active; 'I' for Inactive)
REMARK    1  A    between atoms: C7_8  and  C8_9 
REMARK    2  A    between atoms: C8_9  and  C9_10 
REMARK    3  A    between atoms: C9_10  and  C10_11 
REMARK       I    between atoms: C10_11  and  N2_13 
REMARK    4  A    between atoms: C16_19  and  O2_20 
ROOT
HETATM    1  C10 UNL     1       0.838  -0.389  -0.354  1.00  0.00     0.243 C 
HETATM    2  O1  UNL     1       0.241  -0.241  -1.454  1.00  0.00    -0.271 OA
HETATM    3  N2  UNL     1       2.085   0.290  -0.113  1.00  0.00    -0.226 N 
HETATM    4  C11 UNL     1       2.598   1.256  -1.084  1.00  0.00     0.164 C 
HETATM    5  C12 UNL     1       3.892   1.906  -0.582  1.00  0.00     0.061 C 
HETATM    6  C13 UNL     1       5.044   0.921  -0.518  1.00  0.00    -0.048 A 
HETATM    7  C14 UNL     1       6.257   1.286  -1.135  1.00  0.00     0.010 A 
HETATM    8  C15 UNL     1       7.367   0.443  -1.093  1.00  0.00     0.037 A 
HETATM    9  C16 UNL     1       7.294  -0.779  -0.428  1.00  0.00     0.066 A 
HETATM   10  C17 UNL     1       6.104  -1.156   0.205  1.00  0.00     0.046 A 
HETATM   11  C18 UNL     1       4.973  -0.318   0.184  1.00  0.00    -0.023 A 
HETATM   12  C19 UNL     1       3.724  -0.853   0.864  1.00  0.00     0.240 C 
HETATM   13  O3  UNL     1       2.733   0.124   1.071  1.00  0.00    -0.271 OA
ENDROOT
BRANCH   1  14
HETATM   14  C9  UNL     1       0.206  -1.250   0.706  1.00  0.00     0.110 C 
BRANCH  14  15
HETATM   15  C8  UNL     1      -0.537  -0.404   1.747  1.00  0.00     0.049 C 
BRANCH  15  16
HETATM   16  C7  UNL     1      -1.758   0.255   1.155  1.00  0.00    -0.039 A 
HETATM   17  C6  UNL     1      -1.717   1.589   0.732  1.00  0.00     0.124 A 
HETATM   18  N1  UNL     1      -2.815   2.163   0.175  1.00  0.00    -0.260 NA
HETATM   19  C5  UNL     1      -3.979   1.480  -0.001  1.00  0.00     0.067 A 
HETATM   20  C4  UNL     1      -5.073   2.129  -0.572  1.00  0.00     0.033 A 
HETATM   21  C21 UNL     1      -4.078   0.124   0.392  1.00  0.00    -0.000 A 
HETATM   22  C3  UNL     1      -6.278   1.455  -0.747  1.00  0.00     0.009 A 
HETATM   23  C2  UNL     1      -6.414   0.111  -0.363  1.00  0.00    -0.055 A 
HETATM   24  C1  UNL     1      -7.752  -0.554  -0.566  1.00  0.00     0.049 C 
HETATM   25  C22 UNL     1      -5.301  -0.581   0.195  1.00  0.00    -0.043 A 
HETATM   26  C23 UNL     1      -5.405  -2.043   0.587  1.00  0.00     0.049 C 
HETATM   27  C20 UNL     1      -2.939  -0.477   0.973  1.00  0.00     0.023 A 
ENDBRANCH  15  16
ENDBRANCH  14  15
ENDBRANCH   1  14
BRANCH   9  28
HETATM   28  O2  UNL     1       8.409  -1.615  -0.400  1.00  0.00    -0.361 OA
HETATM   29  H17 UNL     1       8.393  -2.499   0.089  1.00  0.00     0.217 HD
ENDBRANCH   9  28
TORSDOF 4
