REMARK  4 active torsions:
REMARK  status: ('A' for Active; 'I' for Inactive)
REMARK    1  A    between atoms: C2_2  and  C4_4 
REMARK       I    between atoms: C4_4  and  N1_6 
REMARK       I    between atoms: N2_14  and  C12_15 
REMARK    2  A    between atoms: C12_15  and  C13_17 
REMARK    3  A    between atoms: C15_19  and  N3_20 
REMARK    4  A    between atoms: C17_22  and  O3_23 
ROOT
HETATM    1  C4  UNL     1      -3.181   0.213   0.608  1.00  0.00     0.223 C 
HETATM    2  O1  UNL     1      -4.122   1.021   0.847  1.00  0.00    -0.273 OA
HETATM    3  N1  UNL     1      -1.959   0.707   0.009  1.00  0.00    -0.350 N 
HETATM    4  C5  UNL     1      -2.081   1.933  -0.816  1.00  0.00     0.128 C 
HETATM    5  C6  UNL     1      -0.837   2.373  -1.632  1.00  0.00     0.045 C 
HETATM    6  C7  UNL     1      -0.052   1.274  -2.389  1.00  0.00     0.089 C 
HETATM    7  C8  UNL     1      -0.925   0.140  -2.944  1.00  0.00     0.027 C 
HETATM    8  C9  UNL     1      -0.795  -1.005  -1.930  1.00  0.00     0.029 C 
HETATM    9  C10 UNL     1       0.117  -0.466  -0.816  1.00  0.00     0.106 C 
HETATM   10  C11 UNL     1      -0.661   0.115   0.390  1.00  0.00     0.151 C 
HETATM   11  N2  UNL     1       0.834   0.622  -1.447  1.00  0.00    -0.336 N 
HETATM   12  C12 UNL     1       2.194   1.041  -1.194  1.00  0.00     0.273 C 
HETATM   13  O2  UNL     1       2.718   1.897  -1.958  1.00  0.00    -0.266 OA
ENDROOT
BRANCH  12  14
HETATM   14  C13 UNL     1       3.007   0.502  -0.074  1.00  0.00     0.129 A 
HETATM   15  C14 UNL     1       4.410   0.580  -0.113  1.00  0.00     0.066 A 
HETATM   16  C15 UNL     1       5.163   0.091   0.962  1.00  0.00     0.032 A 
HETATM   17  C16 UNL     1       4.507  -0.464   2.066  1.00  0.00     0.086 A 
HETATM   18  C17 UNL     1       3.110  -0.518   2.079  1.00  0.00     0.164 A 
HETATM   19  N4  UNL     1       2.406  -0.035   1.022  1.00  0.00    -0.219 NA
BRANCH  16  20
HETATM   20  N3  UNL     1       6.591   0.159   0.932  1.00  0.00    -0.399 N 
HETATM   21  H21 UNL     1       7.090   0.571   0.112  1.00  0.00     0.156 HD
HETATM   22  H22 UNL     1       7.161  -0.203   1.729  1.00  0.00     0.156 HD
ENDBRANCH  16  20
BRANCH  18  23
HETATM   23  O3  UNL     1       2.428  -1.059   3.166  1.00  0.00    -0.345 OA
HETATM   24  H24 UNL     1       2.922  -1.426   3.971  1.00  0.00     0.219 HD
ENDBRANCH  18  23
ENDBRANCH  12  14
BRANCH   1  25
HETATM   25  C2  UNL     1      -3.385  -1.249   0.947  1.00  0.00     0.070 C 
HETATM   26  C1  UNL     1      -3.434  -1.441   2.466  1.00  0.00     0.019 C 
HETATM   27  C3  UNL     1      -4.667  -1.777   0.292  1.00  0.00     0.019 C 
ENDBRANCH   1  25
TORSDOF 4
