REMARK  5 active torsions:
REMARK  status: ('A' for Active; 'I' for Inactive)
REMARK    1  A    between atoms: O1_2  and  C2_3 
REMARK    2  A    between atoms: C5_6  and  O2_7 
REMARK    3  A    between atoms: C7_9  and  C8_10 
REMARK       I    between atoms: C8_10  and  N1_12 
REMARK    4  A    between atoms: C20_24  and  C21_25 
REMARK    5  A    between atoms: C21_25  and  O5_27 
ROOT
HETATM    1  C8  UNL     1       0.024   0.070   1.209  1.00  0.00     0.258 C 
HETATM    2  O3  UNL     1      -0.448   0.850   2.080  1.00  0.00    -0.267 OA
HETATM    3  N1  UNL     1      -0.780  -1.015   0.709  1.00  0.00    -0.331 N 
HETATM    4  C9  UNL     1      -0.652  -1.613  -0.615  1.00  0.00     0.118 C 
HETATM    5  C10 UNL     1      -1.338  -2.976  -0.421  1.00  0.00     0.032 C 
HETATM    6  C11 UNL     1      -2.348  -2.736   0.728  1.00  0.00     0.032 C 
HETATM    7  C12 UNL     1      -2.172  -1.248   1.083  1.00  0.00     0.119 C 
HETATM    8  C13 UNL     1      -3.047  -0.357   0.161  1.00  0.00    -0.031 C 
HETATM    9  C14 UNL     1      -2.899  -0.612  -1.142  1.00  0.00     0.061 C 
HETATM   10  C15 UNL     1      -1.480  -0.717  -1.529  1.00  0.00    -0.048 C 
HETATM   11  C16 UNL     1      -0.905   0.360  -2.066  1.00  0.00     0.006 C 
HETATM   12  C17 UNL     1      -1.679   1.546  -2.478  1.00  0.00     0.000 C 
HETATM   13  C18 UNL     1      -2.571   2.231  -1.730  1.00  0.00     0.001 C 
HETATM   14  C19 UNL     1      -2.888   2.146  -0.266  1.00  0.00     0.018 C 
HETATM   15  C20 UNL     1      -3.154   1.080   0.549  1.00  0.00     0.042 C 
ENDROOT
BRANCH   1  16
HETATM   16  C7  UNL     1       1.395   0.297   0.716  1.00  0.00     0.068 A 
HETATM   17  C5  UNL     1       2.339  -0.748   0.691  1.00  0.00     0.084 A 
HETATM   18  C4  UNL     1       3.630  -0.495   0.192  1.00  0.00     0.040 A 
HETATM   19  C3  UNL     1       3.980   0.781  -0.257  1.00  0.00     0.039 A 
HETATM   20  C2  UNL     1       3.046   1.830  -0.212  1.00  0.00     0.069 A 
HETATM   21  C22 UNL     1       1.762   1.580   0.281  1.00  0.00     0.056 A 
BRANCH  17  22
HETATM   22  O2  UNL     1       1.967  -2.013   1.177  1.00  0.00    -0.355 OA
HETATM   23  C6  UNL     1       2.804  -3.164   1.162  1.00  0.00     0.210 C 
ENDBRANCH  17  22
BRANCH  20  24
HETATM   24  O1  UNL     1       3.351   3.129  -0.647  1.00  0.00    -0.356 OA
HETATM   25  C1  UNL     1       4.612   3.524  -1.175  1.00  0.00     0.210 C 
ENDBRANCH  20  24
ENDBRANCH   1  16
BRANCH  15  26
HETATM   26  C21 UNL     1      -3.630   1.358   1.929  1.00  0.00     0.176 C 
HETATM   27  O4  UNL     1      -3.386   2.463   2.487  1.00  0.00    -0.646 OA
BRANCH  26  28
HETATM   28  O5  UNL     1      -4.366   0.397   2.618  1.00  0.00    -0.773 OA
HETATM   29  H20 UNL     1      -4.698   0.572   3.558  1.00  0.00     0.167 HD
ENDBRANCH  26  28
ENDBRANCH  15  26
TORSDOF 5
