REMARK  2 active torsions:
REMARK  status: ('A' for Active; 'I' for Inactive)
REMARK    1  A    between atoms: C4_4  and  C5_5 
REMARK       I    between atoms: C5_5  and  N1_7 
REMARK    2  A    between atoms: N2_10  and  C8_11 
ROOT
HETATM    1  C5  UNL     1       1.418   1.489  -0.594  1.00  0.00     0.275 C 
HETATM    2  O1  UNL     1       1.602   2.694  -0.919  1.00  0.00    -0.265 OA
HETATM    3  N1  UNL     1       0.310   0.758  -1.158  1.00  0.00    -0.310 N 
HETATM    4  C6  UNL     1      -0.859   1.518  -1.629  1.00  0.00     0.153 C 
HETATM    5  C7  UNL     1      -2.130   0.667  -1.704  1.00  0.00     0.154 C 
HETATM    6  N2  UNL     1      -2.319  -0.102  -0.469  1.00  0.00    -0.296 N 
HETATM    7  C13 UNL     1      -1.545  -1.301  -0.247  1.00  0.00     0.261 C 
HETATM    8  O2  UNL     1      -1.847  -2.085   0.694  1.00  0.00    -0.267 OA
HETATM    9  C14 UNL     1      -0.381  -1.628  -1.101  1.00  0.00     0.059 A 
HETATM   10  C15 UNL     1      -0.116  -2.969  -1.428  1.00  0.00     0.019 A 
HETATM   11  C16 UNL     1       0.987  -3.302  -2.217  1.00  0.00     0.001 A 
HETATM   12  C17 UNL     1       1.843  -2.302  -2.680  1.00  0.00     0.002 A 
HETATM   13  C18 UNL     1       1.604  -0.967  -2.348  1.00  0.00     0.031 A 
HETATM   14  C19 UNL     1       0.496  -0.616  -1.557  1.00  0.00     0.053 A 
ENDROOT
BRANCH   1  15
HETATM   15  C4  UNL     1       2.352   0.858   0.361  1.00  0.00     0.101 A 
HETATM   16  C3  UNL     1       3.611   1.337   0.676  1.00  0.00     0.043 A 
HETATM   17  C2  UNL     1       4.120   0.467   1.620  1.00  0.00    -0.044 A 
HETATM   18  C1  UNL     1       5.423   0.603   2.335  1.00  0.00     0.049 C 
HETATM   19  C20 UNL     1       3.147  -0.482   1.866  1.00  0.00     0.095 A 
HETATM   20  N4  UNL     1       2.074  -0.241   1.092  1.00  0.00    -0.361 N 
HETATM   21  H17 UNL     1       1.183  -0.784   1.104  1.00  0.00     0.165 HD
ENDBRANCH   1  15
BRANCH   6  22
HETATM   22  C8  UNL     1      -3.213   0.407   0.538  1.00  0.00     0.132 A 
HETATM   23  C9  UNL     1      -4.205  -0.409   1.105  1.00  0.00     0.051 A 
HETATM   24  C10 UNL     1      -5.068   0.125   2.064  1.00  0.00     0.005 A 
HETATM   25  C11 UNL     1      -4.946   1.463   2.440  1.00  0.00     0.019 A 
HETATM   26  C12 UNL     1      -3.961   2.253   1.844  1.00  0.00     0.119 A 
HETATM   27  N3  UNL     1      -3.129   1.714   0.913  1.00  0.00    -0.243 NA
ENDBRANCH   6  22
TORSDOF 2
