REMARK  5 active torsions:
REMARK  status: ('A' for Active; 'I' for Inactive)
REMARK    1  A    between atoms: C2_2  and  O1_3 
REMARK    2  A    between atoms: C2_2  and  C3_4 
REMARK    3  A    between atoms: C5_7  and  C6_8 
REMARK    4  A    between atoms: C12_15  and  C13_16 
REMARK       I    between atoms: C13_16  and  N3_18 
REMARK    5  A    between atoms: N3_18  and  C14_19 
ROOT
HETATM    1  C6  UNL     1      -2.550  -0.135   1.711  1.00  0.00     0.001 C 
HETATM    2  C7  UNL     1      -3.119   0.063   2.932  1.00  0.00     0.129 C 
HETATM    3  N2  UNL     1      -2.501  -0.118   4.237  1.00  0.00    -0.272 NA
HETATM    4  C8  UNL     1      -1.340  -0.590   4.615  1.00  0.00     0.123 C 
HETATM    5  C9  UNL     1      -0.346  -1.121   3.676  1.00  0.00    -0.036 C 
HETATM    6  C10 UNL     1       0.890  -0.596   3.653  1.00  0.00     0.010 C 
HETATM    7  C11 UNL     1       1.720  -0.565   2.417  1.00  0.00     0.017 C 
HETATM    8  C12 UNL     1       1.227  -0.315   1.172  1.00  0.00     0.032 C 
HETATM    9  C19 UNL     1      -0.229  -0.076   0.919  1.00  0.00     0.025 C 
HETATM   10  C20 UNL     1      -1.209  -0.738   1.565  1.00  0.00    -0.040 C 
HETATM   11  C21 UNL     1      -0.863  -1.838   2.492  1.00  0.00     0.079 C 
ENDROOT
BRANCH   1  12
HETATM   12  C5  UNL     1      -3.296   0.233   0.476  1.00  0.00     0.011 A 
HETATM   13  C4  UNL     1      -3.229  -0.571  -0.671  1.00  0.00     0.132 A 
HETATM   14  N1  UNL     1      -3.905  -0.218  -1.794  1.00  0.00    -0.242 NA
HETATM   15  C3  UNL     1      -4.660   0.913  -1.838  1.00  0.00     0.153 A 
HETATM   16  N4  UNL     1      -4.720   1.720  -0.745  1.00  0.00    -0.242 NA
HETATM   17  C22 UNL     1      -4.065   1.405   0.402  1.00  0.00     0.132 A 
BRANCH  15  18
HETATM   18  C2  UNL     1      -5.375   1.311  -3.106  1.00  0.00     0.185 C 
HETATM   19  C1  UNL     1      -6.854   1.615  -2.841  1.00  0.00     0.048 C 
BRANCH  18  20
HETATM   20  O1  UNL     1      -5.246   0.321  -4.098  1.00  0.00    -0.388 OA
HETATM   21  H5  UNL     1      -5.734  -0.484  -3.783  1.00  0.00     0.210 HD
ENDBRANCH  18  20
ENDBRANCH  15  18
ENDBRANCH   1  12
BRANCH   8  22
HETATM   22  C13 UNL     1       2.145  -0.173   0.018  1.00  0.00     0.252 C 
HETATM   23  O2  UNL     1       1.713  -0.419  -1.141  1.00  0.00    -0.268 OA
HETATM   24  N3  UNL     1       3.502   0.267   0.190  1.00  0.00    -0.352 N 
HETATM   25  H11 UNL     1       3.771   0.732   1.087  1.00  0.00     0.163 HD
BRANCH  24  26
HETATM   26  C14 UNL     1       4.476   0.205  -0.904  1.00  0.00     0.084 C 
HETATM   27  C15 UNL     1       5.787   0.893  -0.545  1.00  0.00     0.025 C 
HETATM   28  C16 UNL     1       6.843   0.218  -1.408  1.00  0.00     0.002 C 
HETATM   29  C17 UNL     1       6.286  -1.155  -1.784  1.00  0.00     0.002 C 
HETATM   30  C18 UNL     1       4.872  -1.231  -1.218  1.00  0.00     0.025 C 
ENDBRANCH  24  26
ENDBRANCH   8  22
TORSDOF 5
