REMARK  5 active torsions:
REMARK  status: ('A' for Active; 'I' for Inactive)
REMARK    1  A    between atoms: C6_6  and  C7_7 
REMARK    2  A    between atoms: C7_7  and  C9_9 
REMARK       I    between atoms: C9_9  and  N1_11 
REMARK    3  A    between atoms: C14_16  and  C15_17 
REMARK    4  A    between atoms: C15_17  and  N2_18 
REMARK    5  A    between atoms: N2_18  and  C16_19 
ROOT
HETATM    1  C16 UNL     1       5.087   0.172  -0.465  1.00  0.00     0.123 A 
HETATM    2  C17 UNL     1       6.298  -0.483  -0.202  1.00  0.00     0.051 A 
HETATM    3  C18 UNL     1       7.502   0.202  -0.379  1.00  0.00     0.028 A 
HETATM    4  C19 UNL     1       7.490   1.530  -0.816  1.00  0.00     0.062 A 
HETATM    5  C20 UNL     1       8.724   2.247  -1.003  1.00  0.00     0.101 C 
HETATM    6  N3  UNL     1       9.716   2.823  -1.154  1.00  0.00    -0.191 NA
HETATM    7  C21 UNL     1       6.264   2.153  -1.069  1.00  0.00     0.141 A 
HETATM    8  N4  UNL     1       5.103   1.467  -0.890  1.00  0.00    -0.242 NA
ENDROOT
BRANCH   1   9
HETATM    9  N2  UNL     1       3.842  -0.518  -0.292  1.00  0.00    -0.374 N 
HETATM   10  H22 UNL     1       3.862  -1.512   0.035  1.00  0.00     0.161 HD
BRANCH   9  11
HETATM   11  C15 UNL     1       2.560   0.145  -0.545  1.00  0.00     0.127 C 
BRANCH  11  12
HETATM   12  C14 UNL     1       1.367  -0.824  -0.333  1.00  0.00     0.021 C 
HETATM   13  C13 UNL     1       1.076  -1.090   1.170  1.00  0.00     0.008 C 
HETATM   14  C12 UNL     1      -0.062  -0.280   1.815  1.00  0.00     0.002 C 
HETATM   15  C11 UNL     1       0.034   1.236   1.585  1.00  0.00     0.020 C 
HETATM   16  C10 UNL     1      -0.233   1.683   0.132  1.00  0.00     0.126 C 
HETATM   17  N1  UNL     1      -0.750   0.590  -0.702  1.00  0.00    -0.351 N 
HETATM   18  C9  UNL     1      -2.125   0.603  -1.136  1.00  0.00     0.228 C 
HETATM   19  C22 UNL     1       0.121  -0.490  -1.203  1.00  0.00     0.132 C 
HETATM   20  O1  UNL     1      -2.404   0.236  -2.311  1.00  0.00    -0.273 OA
BRANCH  18  21
HETATM   21  C7  UNL     1      -3.246   0.987  -0.195  1.00  0.00     0.107 C 
HETATM   22  C8  UNL     1      -4.059   2.161  -0.756  1.00  0.00     0.025 C 
BRANCH  21  23
HETATM   23  C6  UNL     1      -4.121  -0.215   0.113  1.00  0.00    -0.045 A 
HETATM   24  C5  UNL     1      -4.940  -0.797  -0.875  1.00  0.00     0.008 A 
HETATM   25  C4  UNL     1      -5.727  -1.911  -0.577  1.00  0.00     0.001 A 
HETATM   26  C3  UNL     1      -5.700  -2.468   0.703  1.00  0.00     0.007 A 
HETATM   27  C2  UNL     1      -4.873  -1.920   1.693  1.00  0.00    -0.061 A 
HETATM   28  C1  UNL     1      -4.866  -2.498   3.078  1.00  0.00     0.048 C 
HETATM   29  C23 UNL     1      -4.099  -0.787   1.399  1.00  0.00     0.014 A 
ENDBRANCH  21  23
ENDBRANCH  18  21
ENDBRANCH  11  12
ENDBRANCH   9  11
ENDBRANCH   1   9
TORSDOF 5
