REMARK  2 active torsions:
REMARK  status: ('A' for Active; 'I' for Inactive)
REMARK       I    between atoms: C1_2  and  N1_3 
REMARK    1  A    between atoms: C1_2  and  C17_19 
REMARK    2  A    between atoms: N1_3  and  C2_4 
ROOT
HETATM    1  C2  UNL     1       0.015  -0.564  -1.324  1.00  0.00     0.035 A 
HETATM    2  C3  UNL     1      -0.515  -0.482  -2.618  1.00  0.00     0.030 A 
HETATM    3  C4  UNL     1      -1.893  -0.377  -2.815  1.00  0.00     0.010 A 
HETATM    4  C5  UNL     1      -2.768  -0.340  -1.719  1.00  0.00    -0.047 A 
HETATM    5  C6  UNL     1      -2.243  -0.383  -0.405  1.00  0.00    -0.017 A 
HETATM    6  C7  UNL     1      -0.854  -0.497  -0.221  1.00  0.00     0.042 A 
HETATM    7  C8  UNL     1      -3.136  -0.258   0.778  1.00  0.00    -0.019 A 
HETATM    8  C9  UNL     1      -2.998  -1.149   1.857  1.00  0.00     0.013 A 
HETATM    9  C10 UNL     1      -3.858  -1.071   2.954  1.00  0.00     0.001 A 
HETATM   10  C11 UNL     1      -4.866  -0.107   2.986  1.00  0.00     0.001 A 
HETATM   11  C12 UNL     1      -5.015   0.789   1.925  1.00  0.00     0.008 A 
HETATM   12  C13 UNL     1      -4.151   0.731   0.820  1.00  0.00    -0.047 A 
HETATM   13  C14 UNL     1      -4.293   1.738  -0.299  1.00  0.00     0.040 C 
HETATM   14  C15 UNL     1      -4.844   1.117  -1.596  1.00  0.00     0.009 C 
HETATM   15  C16 UNL     1      -4.260  -0.263  -1.950  1.00  0.00     0.040 C 
ENDROOT
BRANCH   1  16
HETATM   16  N1  UNL     1       1.441  -0.643  -1.149  1.00  0.00    -0.322 N 
HETATM   17  C1  UNL     1       2.071  -1.271  -0.020  1.00  0.00     0.274 C 
HETATM   18  O1  UNL     1       1.463  -2.177   0.613  1.00  0.00    -0.266 OA
HETATM   19  H1  UNL     1       2.049  -0.308  -1.930  1.00  0.00     0.169 HD
BRANCH  17  20
HETATM   20  C17 UNL     1       3.443  -0.909   0.391  1.00  0.00     0.124 A 
HETATM   21  C18 UNL     1       4.078   0.255  -0.097  1.00  0.00     0.047 A 
HETATM   22  C19 UNL     1       5.369   0.525   0.355  1.00  0.00    -0.022 A 
HETATM   23  C20 UNL     1       5.992  -0.281   1.232  1.00  0.00    -0.009 A 
HETATM   24  C23 UNL     1       6.263   1.647   0.021  1.00  0.00     0.207 A 
HETATM   25  C21 UNL     1       5.364  -1.422   1.723  1.00  0.00     0.127 A 
HETATM   26  C22 UNL     1       7.329   0.262   1.522  1.00  0.00     0.208 A 
HETATM   27  N2  UNL     1       4.103  -1.707   1.290  1.00  0.00    -0.255 NA
HETATM   28  O2  UNL     1       7.463   1.457   0.763  1.00  0.00    -0.382 OA
ENDBRANCH  17  20
ENDBRANCH   1  16
TORSDOF 2
