REMARK  2 active torsions:
REMARK  status: ('A' for Active; 'I' for Inactive)
REMARK    1  A    between atoms: C5_5  and  C6_6 
REMARK    2  A    between atoms: C10_10  and  C11_11 
ROOT
HETATM    1  C6  UNL     1       1.876  -0.865  -0.273  1.00  0.00    -0.025 A 
HETATM    2  C7  UNL     1       1.702  -2.089  -0.944  1.00  0.00     0.012 A 
HETATM    3  C8  UNL     1       0.433  -2.658  -1.060  1.00  0.00     0.002 A 
HETATM    4  C9  UNL     1      -0.678  -2.015  -0.512  1.00  0.00     0.012 A 
HETATM    5  C10 UNL     1      -0.530  -0.788   0.154  1.00  0.00    -0.022 A 
HETATM    6  C20 UNL     1       0.751  -0.223   0.276  1.00  0.00     0.024 A 
ENDROOT
BRANCH   5   7
HETATM    7  C11 UNL     1      -1.708  -0.105   0.744  1.00  0.00     0.009 A 
HETATM    8  C12 UNL     1      -1.657   0.294   2.088  1.00  0.00     0.015 A 
HETATM    9  C13 UNL     1      -2.745   0.929   2.677  1.00  0.00     0.002 A 
HETATM   10  C14 UNL     1      -3.896   1.171   1.935  1.00  0.00     0.010 A 
HETATM   11  C15 UNL     1      -3.977   0.787   0.584  1.00  0.00    -0.022 A 
HETATM   12  C16 UNL     1      -2.867   0.148  -0.029  1.00  0.00     0.098 A 
HETATM   13  C19 UNL     1      -5.250   1.064  -0.159  1.00  0.00     0.061 C 
HETATM   14  O1  UNL     1      -2.808  -0.198  -1.394  1.00  0.00    -0.260 OA
HETATM   15  C17 UNL     1      -3.814  -0.366  -2.360  1.00  0.00     0.365 C 
HETATM   16  O2  UNL     1      -3.453  -0.493  -3.560  1.00  0.00    -0.238 OA
HETATM   17  N1  UNL     1      -5.213  -0.452  -2.062  1.00  0.00    -0.336 N 
HETATM   18  C18 UNL     1      -5.793  -0.229  -0.750  1.00  0.00     0.129 C 
HETATM   19  H12 UNL     1      -5.872  -0.605  -2.860  1.00  0.00     0.164 HD
ENDBRANCH   5   7
BRANCH   1  20
HETATM   20  C5  UNL     1       3.227  -0.261  -0.145  1.00  0.00    -0.024 A 
HETATM   21  C4  UNL     1       3.627   0.342   1.059  1.00  0.00     0.013 A 
HETATM   22  C3  UNL     1       4.897   0.910   1.181  1.00  0.00     0.009 A 
HETATM   23  C2  UNL     1       5.794   0.889   0.101  1.00  0.00    -0.040 A 
HETATM   24  C1  UNL     1       7.157   1.506   0.246  1.00  0.00     0.050 C 
HETATM   25  C22 UNL     1       5.398   0.288  -1.110  1.00  0.00     0.040 A 
HETATM   26  C21 UNL     1       4.125  -0.282  -1.226  1.00  0.00     0.036 A 
HETATM   27 CL1  UNL     1       6.474   0.234  -2.503  1.00  0.00    -0.084 Cl
ENDBRANCH   1  20
TORSDOF 2
