REMARK  2 active torsions:
REMARK  status: ('A' for Active; 'I' for Inactive)
REMARK    1  A    between atoms: C1_2  and  C2_3 
REMARK       I    between atoms: C1_2  and  N1_15 
REMARK    2  A    between atoms: C2_3  and  C3_4 
ROOT
HETATM    1  O1  UNL     1      -0.363   1.615   3.572  1.00  0.00    -0.273 OA
HETATM    2  C1  UNL     1      -0.767   1.413   2.393  1.00  0.00     0.228 C 
HETATM    3  N1  UNL     1      -1.542   0.234   2.096  1.00  0.00    -0.314 N 
HETATM    4  C12 UNL     1      -1.146  -1.030   2.751  1.00  0.00     0.142 C 
HETATM    5  C13 UNL     1      -1.813  -2.272   2.140  1.00  0.00     0.100 C 
HETATM    6  S1  UNL     1      -1.697  -2.206   0.324  1.00  0.00    -0.126 SA
HETATM    7  C14 UNL     1      -2.815  -0.807   0.260  1.00  0.00     0.030 A 
HETATM    8  C15 UNL     1      -3.904  -0.811  -0.615  1.00  0.00     0.040 A 
HETATM    9  C16 UNL     1      -4.760   0.292  -0.641  1.00  0.00     0.117 A 
HETATM   10  N2  UNL     1      -4.547   1.341   0.199  1.00  0.00    -0.271 NA
HETATM   11  C17 UNL     1      -3.509   1.356   1.077  1.00  0.00     0.147 A 
HETATM   12  C18 UNL     1      -2.610   0.277   1.125  1.00  0.00     0.071 A 
ENDROOT
BRANCH   2  13
HETATM   13  C2  UNL     1      -0.362   2.377   1.308  1.00  0.00     0.142 C 
BRANCH  13  14
HETATM   14  C3  UNL     1       0.323   1.646   0.184  1.00  0.00    -0.047 A 
HETATM   15  C4  UNL     1      -0.347   1.409  -1.026  1.00  0.00     0.010 A 
HETATM   16  C5  UNL     1       0.269   0.669  -2.036  1.00  0.00     0.040 A 
HETATM   17  C6  UNL     1       1.559   0.158  -1.857  1.00  0.00     0.102 A 
HETATM   18  C7  UNL     1       2.270   0.462  -0.674  1.00  0.00     0.102 A 
HETATM   19  O3  UNL     1       2.090  -0.677  -2.848  1.00  0.00    -0.348 OA
HETATM   20  C8  UNL     1       1.631   1.165   0.353  1.00  0.00     0.047 A 
HETATM   21  O2  UNL     1       3.618   0.112  -0.511  1.00  0.00    -0.348 OA
HETATM   22  C9  UNL     1       4.539   0.075  -1.599  1.00  0.00     0.178 C 
HETATM   23  C10 UNL     1       4.438  -1.227  -2.399  1.00  0.00     0.053 C 
HETATM   24  C11 UNL     1       3.003  -1.735  -2.560  1.00  0.00     0.178 C 
ENDBRANCH  13  14
ENDBRANCH   2  13
TORSDOF 2
