REMARK  3 active torsions:
REMARK  status: ('A' for Active; 'I' for Inactive)
REMARK    1  A    between atoms: C1_2  and  C2_3 
REMARK       I    between atoms: C1_2  and  N1_13 
REMARK    2  A    between atoms: C2_3  and  C3_4 
REMARK    3  A    between atoms: N1_13  and  C11_14 
ROOT
HETATM    1  C11 UNL     1       0.126  -0.965   0.624  1.00  0.00     0.053 A 
HETATM    2  C12 UNL     1      -1.157  -0.593   1.036  1.00  0.00     0.045 A 
HETATM    3  C13 UNL     1      -2.260  -0.753   0.181  1.00  0.00     0.004 A 
HETATM    4  C14 UNL     1      -2.037  -1.278  -1.109  1.00  0.00     0.054 A 
HETATM    5  N2  UNL     1      -0.774  -1.606  -1.497  1.00  0.00    -0.262 NA
HETATM    6  C15 UNL     1       0.296  -1.466  -0.674  1.00  0.00     0.146 A 
HETATM    7  C16 UNL     1      -3.160  -1.433  -2.087  1.00  0.00     0.163 C 
HETATM    8  C17 UNL     1      -3.660  -0.073  -2.463  1.00  0.00     0.229 C 
HETATM    9  O3  UNL     1      -3.616   0.281  -3.673  1.00  0.00    -0.273 OA
HETATM   10  N3  UNL     1      -4.161   0.833  -1.459  1.00  0.00    -0.321 N 
HETATM   11  C18 UNL     1      -4.486   2.210  -1.840  1.00  0.00     0.159 C 
HETATM   12  C19 UNL     1      -4.530   0.352  -0.146  1.00  0.00     0.048 A 
HETATM   13  C20 UNL     1      -5.811   0.647   0.359  1.00  0.00     0.030 A 
HETATM   14  C21 UNL     1      -6.197   0.208   1.625  1.00  0.00     0.002 A 
HETATM   15  C22 UNL     1      -5.313  -0.531   2.408  1.00  0.00     0.001 A 
HETATM   16  C23 UNL     1      -4.039  -0.833   1.928  1.00  0.00     0.014 A 
HETATM   17  C24 UNL     1      -3.627  -0.400   0.653  1.00  0.00     0.003 A 
ENDROOT
BRANCH   1  18
HETATM   18  N1  UNL     1       1.244  -0.759   1.503  1.00  0.00    -0.326 N 
HETATM   19  C1  UNL     1       2.410  -1.595   1.518  1.00  0.00     0.226 C 
HETATM   20  O1  UNL     1       2.366  -2.763   1.044  1.00  0.00    -0.273 OA
HETATM   21  H10 UNL     1       1.193   0.027   2.188  1.00  0.00     0.169 HD
BRANCH  19  22
HETATM   22  C2  UNL     1       3.697  -1.079   2.084  1.00  0.00     0.144 C 
BRANCH  22  23
HETATM   23  C3  UNL     1       4.599  -0.619   0.973  1.00  0.00    -0.015 A 
HETATM   24  C4  UNL     1       5.751  -1.349   0.612  1.00  0.00     0.010 A 
HETATM   25  C5  UNL     1       6.567  -0.913  -0.451  1.00  0.00     0.001 A 
HETATM   26  C6  UNL     1       6.236   0.247  -1.167  1.00  0.00     0.010 A 
HETATM   27  C7  UNL     1       5.090   0.950  -0.799  1.00  0.00    -0.022 A 
HETATM   28  C8  UNL     1       4.301   0.532   0.234  1.00  0.00     0.082 A 
HETATM   29  C10 UNL     1       4.527   2.186  -1.402  1.00  0.00     0.068 A 
HETATM   30  O2  UNL     1       3.223   1.374   0.409  1.00  0.00    -0.350 OA
HETATM   31  C9  UNL     1       3.251   2.424  -0.557  1.00  0.00     0.180 A 
ENDBRANCH  22  23
ENDBRANCH  19  22
ENDBRANCH   1  18
TORSDOF 3
