REMARK  4 active torsions:
REMARK  status: ('A' for Active; 'I' for Inactive)
REMARK    1  A    between atoms: C1_2  and  C2_3 
REMARK    2  A    between atoms: C1_2  and  C29_31 
REMARK    3  A    between atoms: C2_3  and  C3_5 
REMARK    4  A    between atoms: C5_7  and  C6_8 
ROOT
HETATM    1  C3  UNL     1       1.220  -0.264   1.569  1.00  0.00     0.019 A 
HETATM    2  C4  UNL     1      -0.041  -0.514   1.001  1.00  0.00     0.028 A 
HETATM    3  C5  UNL     1      -1.148  -0.838   1.808  1.00  0.00    -0.025 A 
HETATM    4  C26 UNL     1      -0.975  -0.907   3.202  1.00  0.00     0.012 A 
HETATM    5  C27 UNL     1       0.274  -0.659   3.772  1.00  0.00     0.002 A 
HETATM    6  C28 UNL     1       1.368  -0.347   2.964  1.00  0.00     0.015 A 
ENDROOT
BRANCH   1   7
HETATM    7  C2  UNL     1       2.386  -0.001   0.691  1.00  0.00     0.232 C 
HETATM    8  O2  UNL     1       2.436  -0.577  -0.429  1.00  0.00    -0.283 OA
BRANCH   7   9
HETATM    9  C1  UNL     1       3.496   0.894   1.107  1.00  0.00     0.232 C 
HETATM   10  O1  UNL     1       3.321   1.694   2.066  1.00  0.00    -0.283 OA
BRANCH   9  11
HETATM   11  C29 UNL     1       4.823   0.856   0.451  1.00  0.00     0.019 A 
HETATM   12  C30 UNL     1       4.950   0.839  -0.943  1.00  0.00     0.016 A 
HETATM   13  C31 UNL     1       6.208   0.770  -1.543  1.00  0.00     0.014 A 
HETATM   14  C32 UNL     1       7.388   0.727  -0.763  1.00  0.00    -0.008 A 
HETATM   15  C33 UNL     1       7.259   0.790   0.651  1.00  0.00     0.044 A 
HETATM   16  C41 UNL     1       8.691   0.630  -1.333  1.00  0.00     0.002 A 
HETATM   17  C34 UNL     1       5.980   0.857   1.239  1.00  0.00     0.033 A 
HETATM   18  C35 UNL     1       8.414   0.777   1.453  1.00  0.00     0.257 A 
HETATM   19  O3  UNL     1       8.324   0.838   2.711  1.00  0.00    -0.267 OA
HETATM   20  N1  UNL     1       9.644   0.699   0.884  1.00  0.00    -0.322 N 
HETATM   21  C36 UNL     1       9.815   0.622  -0.464  1.00  0.00     0.046 A 
HETATM   22  H23 UNL     1      10.481   0.692   1.513  1.00  0.00     0.169 HD
HETATM   23  C37 UNL     1      11.115   0.528  -0.991  1.00  0.00     0.030 A 
HETATM   24  C38 UNL     1      11.315   0.433  -2.365  1.00  0.00     0.002 A 
HETATM   25  C39 UNL     1      10.224   0.428  -3.229  1.00  0.00     0.001 A 
HETATM   26  C40 UNL     1       8.924   0.527  -2.727  1.00  0.00     0.014 A 
ENDBRANCH   9  11
ENDBRANCH   7   9
ENDBRANCH   1   7
BRANCH   3  27
HETATM   27  C6  UNL     1      -2.476  -1.111   1.196  1.00  0.00    -0.025 A 
HETATM   28  C7  UNL     1      -2.572  -1.809  -0.020  1.00  0.00     0.013 A 
HETATM   29  C8  UNL     1      -3.815  -2.043  -0.608  1.00  0.00     0.014 A 
HETATM   30  C9  UNL     1      -4.991  -1.599   0.010  1.00  0.00    -0.019 A 
HETATM   31  C10 UNL     1      -4.917  -0.937   1.256  1.00  0.00    -0.046 A 
HETATM   32  C25 UNL     1      -6.277  -1.751  -0.705  1.00  0.00    -0.014 A 
HETATM   33  C11 UNL     1      -3.659  -0.681   1.826  1.00  0.00     0.020 A 
HETATM   34  C12 UNL     1      -6.172  -0.530   2.003  1.00  0.00     0.044 C 
HETATM   35  C13 UNL     1      -6.912   0.709   1.445  1.00  0.00     0.044 C 
HETATM   36  C14 UNL     1      -6.293   1.346   0.218  1.00  0.00    -0.047 A 
HETATM   37  C15 UNL     1      -5.636   2.582   0.339  1.00  0.00     0.008 A 
HETATM   38  C19 UNL     1      -6.391   0.737  -1.056  1.00  0.00    -0.019 A 
HETATM   39  C16 UNL     1      -5.114   3.219  -0.788  1.00  0.00     0.001 A 
HETATM   40  C17 UNL     1      -5.238   2.630  -2.047  1.00  0.00     0.001 A 
HETATM   41  C18 UNL     1      -5.867   1.392  -2.182  1.00  0.00     0.013 A 
HETATM   42  C20 UNL     1      -6.955  -0.622  -1.218  1.00  0.00    -0.014 A 
HETATM   43  C21 UNL     1      -8.145  -0.797  -1.940  1.00  0.00     0.013 A 
HETATM   44  C22 UNL     1      -8.663  -2.078  -2.145  1.00  0.00     0.001 A 
HETATM   45  C23 UNL     1      -7.992  -3.195  -1.640  1.00  0.00     0.001 A 
HETATM   46  C24 UNL     1      -6.801  -3.034  -0.928  1.00  0.00     0.013 A 
ENDBRANCH   3  27
TORSDOF 4
