REMARK  4 active torsions:
REMARK  status: ('A' for Active; 'I' for Inactive)
REMARK    1  A    between atoms: C2_2  and  C3_3 
REMARK    2  A    between atoms: C2_2  and  C13_19 
REMARK       I    between atoms: C3_3  and  N1_5 
REMARK    3  A    between atoms: C5_7  and  S1_8 
REMARK    4  A    between atoms: S1_8  and  O2_9 
ROOT
HETATM    1  C3  UNL     1       0.035   0.681  -1.713  1.00  0.00     0.232 C 
HETATM    2  O1  UNL     1       0.012   1.922  -1.947  1.00  0.00    -0.272 OA
HETATM    3  N1  UNL     1      -1.145   0.042  -1.170  1.00  0.00    -0.315 N 
HETATM    4  C4  UNL     1      -1.054  -1.306  -0.567  1.00  0.00     0.155 C 
HETATM    5  C5  UNL     1      -2.329  -1.738   0.126  1.00  0.00     0.057 C 
HETATM    6  C6  UNL     1      -2.768  -1.019   1.389  1.00  0.00     0.029 C 
HETATM    7  C7  UNL     1      -2.607   0.504   1.277  1.00  0.00     0.046 C 
HETATM    8  C8  UNL     1      -3.140   1.011  -0.044  1.00  0.00     0.009 A 
HETATM    9  C9  UNL     1      -4.386   1.666  -0.153  1.00  0.00     0.134 A 
HETATM   10 CL1  UNL     1      -5.414   1.963   1.242  1.00  0.00    -0.062 Cl
HETATM   11  N2  UNL     1      -4.832   2.075  -1.370  1.00  0.00    -0.248 NA
HETATM   12  C10 UNL     1      -4.121   1.867  -2.507  1.00  0.00     0.120 A 
HETATM   13  C11 UNL     1      -2.898   1.202  -2.455  1.00  0.00     0.049 A 
HETATM   14  C12 UNL     1      -2.401   0.761  -1.222  1.00  0.00     0.048 A 
ENDROOT
BRANCH   1  15
HETATM   15  C2  UNL     1       1.322  -0.087  -1.956  1.00  0.00     0.107 C 
HETATM   16  C1  UNL     1       2.178   0.557  -3.055  1.00  0.00     0.025 C 
BRANCH  15  17
HETATM   17  C13 UNL     1       2.127  -0.226  -0.679  1.00  0.00    -0.044 A 
HETATM   18  C14 UNL     1       2.592  -1.490  -0.278  1.00  0.00     0.009 A 
HETATM   19  C15 UNL     1       3.337  -1.637   0.894  1.00  0.00     0.013 A 
HETATM   20  C16 UNL     1       3.641  -0.518   1.682  1.00  0.00    -0.026 A 
HETATM   21  C17 UNL     1       4.388  -0.656   2.862  1.00  0.00     0.012 A 
HETATM   22  C21 UNL     1       3.192   0.763   1.281  1.00  0.00    -0.025 A 
HETATM   23  C18 UNL     1       4.686   0.468   3.638  1.00  0.00     0.001 A 
HETATM   24  C19 UNL     1       4.244   1.733   3.242  1.00  0.00     0.001 A 
HETATM   25  C20 UNL     1       3.500   1.884   2.068  1.00  0.00     0.012 A 
HETATM   26  C22 UNL     1       2.445   0.901   0.102  1.00  0.00     0.020 A 
ENDBRANCH  15  17
ENDBRANCH   1  15
BRANCH   5  27
HETATM   27  S1  UNL     1      -3.230  -2.906  -0.559  1.00  0.00    -0.090 S 
HETATM   28  H7  UNL     1      -3.737  -2.323  -1.717  1.00  0.00     0.121 HD
BRANCH  27  29
HETATM   29  O2  UNL     1      -4.598  -3.139   0.428  1.00  0.00    -0.343 OA
HETATM   30  H8  UNL     1      -4.571  -4.099   0.668  1.00  0.00     0.226 HD
ENDBRANCH  27  29
ENDBRANCH   5  27
TORSDOF 4
