REMARK  6 active torsions:
REMARK  status: ('A' for Active; 'I' for Inactive)
REMARK       I    between atoms: C1_2  and  N1_3 
REMARK    1  A    between atoms: C1_2  and  C27_30 
REMARK       I    between atoms: N1_3  and  C2_4 
REMARK    2  A    between atoms: C2_4  and  C3_6 
REMARK    3  A    between atoms: C5_8  and  C26_29 
REMARK    4  A    between atoms: C6_9  and  C9_12 
REMARK    5  A    between atoms: C14_17  and  C15_18 
REMARK    6  A    between atoms: C20_23  and  C21_24 
ROOT
HETATM    1  O1  UNL     1       1.832   0.537  -3.118  1.00  0.00    -0.266 OA
HETATM    2  C1  UNL     1       1.571   0.107  -1.962  1.00  0.00     0.275 C 
HETATM    3  N1  UNL     1       0.222  -0.235  -1.598  1.00  0.00    -0.288 N 
HETATM    4  C2  UNL     1      -0.915  -0.072  -2.465  1.00  0.00     0.258 C 
HETATM    5  O2  UNL     1      -0.757   0.319  -3.654  1.00  0.00    -0.267 OA
HETATM    6  H1  UNL     1       0.079  -0.728  -0.689  1.00  0.00     0.172 HD
ENDROOT
BRANCH   2   7
HETATM    7  C27 UNL     1       2.671  -0.072  -0.989  1.00  0.00     0.104 A 
HETATM    8  C28 UNL     1       3.948  -0.435  -1.435  1.00  0.00     0.048 A 
HETATM    9  C29 UNL     1       4.977  -0.637  -0.510  1.00  0.00    -0.011 A 
HETATM   10  C30 UNL     1       4.714  -0.497   0.868  1.00  0.00     0.021 A 
HETATM   11  C45 UNL     1       6.338  -0.967  -0.989  1.00  0.00    -0.014 A 
HETATM   12  C31 UNL     1       3.431  -0.085   1.271  1.00  0.00     0.253 A 
HETATM   13  C32 UNL     1       5.801  -0.786   1.887  1.00  0.00     0.050 C 
HETATM   14  O3  UNL     1       3.177   0.103   2.492  1.00  0.00    -0.268 OA
HETATM   15  N2  UNL     1       2.452   0.113   0.346  1.00  0.00    -0.319 N 
HETATM   16  H18 UNL     1       1.512   0.432   0.677  1.00  0.00     0.169 HD
HETATM   17  C33 UNL     1       6.742   0.403   2.172  1.00  0.00     0.044 C 
HETATM   18  C34 UNL     1       6.778   1.504   1.124  1.00  0.00    -0.047 A 
HETATM   19  C35 UNL     1       6.474   2.820   1.523  1.00  0.00     0.008 A 
HETATM   20  C39 UNL     1       7.192   1.272  -0.214  1.00  0.00    -0.019 A 
HETATM   21  C36 UNL     1       6.589   3.884   0.627  1.00  0.00     0.001 A 
HETATM   22  C37 UNL     1       7.013   3.654  -0.680  1.00  0.00     0.001 A 
HETATM   23  C38 UNL     1       7.311   2.357  -1.099  1.00  0.00     0.013 A 
HETATM   24  C40 UNL     1       7.422  -0.088  -0.756  1.00  0.00    -0.014 A 
HETATM   25  C41 UNL     1       8.709  -0.449  -1.186  1.00  0.00     0.013 A 
HETATM   26  C42 UNL     1       8.920  -1.673  -1.826  1.00  0.00     0.001 A 
HETATM   27  C43 UNL     1       7.849  -2.540  -2.057  1.00  0.00     0.001 A 
HETATM   28  C44 UNL     1       6.563  -2.188  -1.642  1.00  0.00     0.013 A 
ENDBRANCH   2   7
BRANCH   4  29
HETATM   29  C3  UNL     1      -2.278  -0.399  -1.985  1.00  0.00     0.033 A 
HETATM   30  C4  UNL     1      -2.613  -0.272  -0.626  1.00  0.00     0.030 A 
HETATM   31  C5  UNL     1      -3.890  -0.625  -0.164  1.00  0.00    -0.013 A 
HETATM   32  C6  UNL     1      -4.850  -1.116  -1.074  1.00  0.00    -0.014 A 
HETATM   33  C7  UNL     1      -4.521  -1.221  -2.434  1.00  0.00     0.014 A 
HETATM   34  C8  UNL     1      -3.251  -0.856  -2.887  1.00  0.00     0.018 A 
BRANCH  31  35
HETATM   35  C26 UNL     1      -4.181  -0.512   1.284  1.00  0.00    -0.014 A 
HETATM   36  C21 UNL     1      -5.132   0.410   1.778  1.00  0.00    -0.014 A 
HETATM   37  C22 UNL     1      -5.334   0.520   3.164  1.00  0.00     0.013 A 
HETATM   38  C23 UNL     1      -4.615  -0.285   4.050  1.00  0.00     0.001 A 
HETATM   39  C24 UNL     1      -3.677  -1.197   3.563  1.00  0.00     0.001 A 
HETATM   40  C25 UNL     1      -3.456  -1.307   2.188  1.00  0.00     0.013 A 
BRANCH  36  41
HETATM   41  C20 UNL     1      -5.895   1.296   0.869  1.00  0.00    -0.014 A 
HETATM   42  C15 UNL     1      -6.862   0.780  -0.025  1.00  0.00    -0.014 A 
HETATM   43  C16 UNL     1      -7.599   1.663  -0.829  1.00  0.00     0.013 A 
HETATM   44  C17 UNL     1      -7.373   3.039  -0.762  1.00  0.00     0.001 A 
HETATM   45  C18 UNL     1      -6.416   3.548   0.118  1.00  0.00     0.001 A 
HETATM   46  C19 UNL     1      -5.685   2.683   0.935  1.00  0.00     0.013 A 
BRANCH  42  47
HETATM   47  C14 UNL     1      -7.140  -0.671  -0.108  1.00  0.00    -0.014 A 
HETATM   48  C9  UNL     1      -6.182  -1.575  -0.618  1.00  0.00    -0.014 A 
HETATM   49  C10 UNL     1      -6.503  -2.939  -0.718  1.00  0.00     0.013 A 
HETATM   50  C11 UNL     1      -7.752  -3.404  -0.303  1.00  0.00     0.001 A 
HETATM   51  C12 UNL     1      -8.697  -2.511   0.205  1.00  0.00     0.001 A 
HETATM   52  C13 UNL     1      -8.397  -1.150   0.296  1.00  0.00     0.013 A 
ENDBRANCH  42  47
ENDBRANCH  36  41
ENDBRANCH  31  35
ENDBRANCH   4  29
TORSDOF 6
