REMARK  2 active torsions:
REMARK  status: ('A' for Active; 'I' for Inactive)
REMARK    1  A    between atoms: C4_6  and  C5_7 
REMARK    2  A    between atoms: C15_18  and  C16_19 
ROOT
HETATM    1  C5  UNL     1      -1.287  -0.517  -0.216  1.00  0.00    -0.023 A 
HETATM    2  C6  UNL     1      -0.516   0.056   0.827  1.00  0.00     0.013 A 
HETATM    3  C7  UNL     1       0.890  -0.035   0.812  1.00  0.00     0.015 A 
HETATM    4  C8  UNL     1       1.499  -0.702  -0.258  1.00  0.00     0.004 A 
HETATM    5  C9  UNL     1       0.742  -1.304  -1.244  1.00  0.00     0.044 A 
HETATM    6  C10 UNL     1      -0.644  -1.215  -1.262  1.00  0.00     0.042 A 
HETATM    7  N2  UNL     1       1.505  -1.997  -2.112  1.00  0.00    -0.355 N 
HETATM    8  C11 UNL     1       2.768  -1.827  -1.676  1.00  0.00     0.044 A 
HETATM    9  C12 UNL     1       3.907  -2.406  -2.224  1.00  0.00     0.030 A 
HETATM   10  C13 UNL     1       5.142  -2.131  -1.619  1.00  0.00     0.003 A 
HETATM   11  C14 UNL     1       5.223  -1.266  -0.506  1.00  0.00     0.013 A 
HETATM   12  C15 UNL     1       4.060  -0.681   0.044  1.00  0.00    -0.013 A 
HETATM   13  C22 UNL     1       2.823  -1.013  -0.553  1.00  0.00     0.014 A 
HETATM   14  H7  UNL     1       1.185  -2.570  -2.925  1.00  0.00     0.166 HD
ENDROOT
BRANCH   1  15
HETATM   15  C4  UNL     1      -2.774  -0.458  -0.195  1.00  0.00    -0.014 C 
HETATM   16  C3  UNL     1      -3.417  -1.789  -0.129  1.00  0.00     0.030 C 
HETATM   17  C2  UNL     1      -4.216  -2.127   0.874  1.00  0.00     0.092 C 
HETATM   18  N1  UNL     1      -4.681  -1.149   1.795  1.00  0.00    -0.332 N 
HETATM   19  C1  UNL     1      -5.640  -0.179   1.370  1.00  0.00     0.267 C 
HETATM   20  H1  UNL     1      -4.656  -1.398   2.811  1.00  0.00     0.168 HD
HETATM   21  O1  UNL     1      -6.478   0.249   2.217  1.00  0.00    -0.266 OA
HETATM   22  C29 UNL     1      -5.828   0.188  -0.058  1.00  0.00     0.109 C 
HETATM   23  C28 UNL     1      -4.848   0.678  -0.871  1.00  0.00    -0.011 C 
HETATM   24 CL1  UNL     1      -7.542   0.264  -0.564  1.00  0.00    -0.078 Cl
HETATM   25  C23 UNL     1      -3.454   0.672  -0.566  1.00  0.00    -0.016 C 
HETATM   26  C27 UNL     1      -5.269   1.336  -2.057  1.00  0.00     0.056 C 
HETATM   27  C24 UNL     1      -2.748   1.851  -0.877  1.00  0.00     0.012 C 
HETATM   28  C25 UNL     1      -3.339   2.848  -1.643  1.00  0.00    -0.002 C 
HETATM   29  C26 UNL     1      -4.563   2.613  -2.282  1.00  0.00    -0.016 C 
ENDBRANCH   1  15
BRANCH  12  30
HETATM   30  C16 UNL     1       4.202   0.314   1.129  1.00  0.00    -0.025 A 
HETATM   31  C17 UNL     1       4.958   0.004   2.272  1.00  0.00     0.012 A 
HETATM   32  C18 UNL     1       5.178   0.973   3.254  1.00  0.00     0.001 A 
HETATM   33  C19 UNL     1       4.643   2.256   3.106  1.00  0.00     0.000 A 
HETATM   34  C20 UNL     1       3.902   2.579   1.964  1.00  0.00     0.001 A 
HETATM   35  C21 UNL     1       3.691   1.614   0.974  1.00  0.00     0.012 A 
ENDBRANCH  12  30
TORSDOF 2
