REMARK  2 active torsions:
REMARK  status: ('A' for Active; 'I' for Inactive)
REMARK    1  A    between atoms: N3_12  and  C8_13 
REMARK    2  A    between atoms: C8_13  and  C9_14 
ROOT
HETATM    1  C9  UNL     1       0.304  -1.401   1.147  1.00  0.00    -0.005 A 
HETATM    2  C10 UNL     1      -0.032  -2.755   1.295  1.00  0.00     0.012 A 
HETATM    3  C11 UNL     1      -1.016  -3.329   0.502  1.00  0.00     0.002 A 
HETATM    4  C12 UNL     1      -1.692  -2.560  -0.437  1.00  0.00     0.015 A 
HETATM    5  C13 UNL     1      -1.396  -1.197  -0.606  1.00  0.00     0.009 A 
HETATM    6  C14 UNL     1      -0.363  -0.601   0.188  1.00  0.00     0.087 A 
HETATM    7  O3  UNL     1       0.076   0.738   0.091  1.00  0.00    -0.349 OA
HETATM    8  C15 UNL     1      -0.351   1.778  -0.787  1.00  0.00     0.180 C 
HETATM    9  C16 UNL     1      -1.433   2.662  -0.143  1.00  0.00     0.066 C 
HETATM   10  C17 UNL     1      -2.388   1.905   0.759  1.00  0.00    -0.045 A 
HETATM   11  C18 UNL     1      -2.426   2.201   2.134  1.00  0.00     0.008 A 
HETATM   12  C19 UNL     1      -3.309   1.526   2.980  1.00  0.00     0.001 A 
HETATM   13  C20 UNL     1      -4.163   0.549   2.467  1.00  0.00     0.001 A 
HETATM   14  C21 UNL     1      -4.134   0.239   1.106  1.00  0.00     0.013 A 
HETATM   15  C22 UNL     1      -3.252   0.912   0.248  1.00  0.00    -0.019 A 
HETATM   16  C23 UNL     1      -3.175   0.505  -1.164  1.00  0.00    -0.014 A 
HETATM   17  C24 UNL     1      -4.006   1.128  -2.106  1.00  0.00     0.013 A 
HETATM   18  C25 UNL     1      -3.917   0.784  -3.457  1.00  0.00     0.001 A 
HETATM   19  C26 UNL     1      -3.001  -0.184  -3.874  1.00  0.00     0.001 A 
HETATM   20  C27 UNL     1      -2.170  -0.811  -2.942  1.00  0.00     0.013 A 
HETATM   21  C28 UNL     1      -2.239  -0.466  -1.581  1.00  0.00    -0.012 A 
ENDROOT
BRANCH   1  22
HETATM   22  C8  UNL     1       1.390  -0.814   2.027  1.00  0.00     0.178 C 
BRANCH  22  23
HETATM   23  N3  UNL     1       2.584  -0.446   1.234  1.00  0.00    -0.261 N 
HETATM   24  C1  UNL     1       2.948   0.872   1.082  1.00  0.00     0.330 A 
HETATM   25  O1  UNL     1       2.283   1.792   1.634  1.00  0.00    -0.246 OA
HETATM   26  N1  UNL     1       4.034   1.208   0.335  1.00  0.00    -0.307 N 
HETATM   27  C2  UNL     1       4.796   0.259  -0.270  1.00  0.00     0.054 A 
HETATM   28  H1  UNL     1       4.283   2.219   0.230  1.00  0.00     0.170 HD
HETATM   29  C3  UNL     1       5.910   0.620  -1.040  1.00  0.00     0.050 A 
HETATM   30  C6  UNL     1       4.467  -1.098  -0.118  1.00  0.00     0.076 A 
HETATM   31  C4  UNL     1       6.678  -0.377  -1.645  1.00  0.00     0.118 A 
HETATM   32  N2  UNL     1       6.346  -1.685  -1.486  1.00  0.00    -0.272 NA
HETATM   33  C5  UNL     1       5.272  -2.067  -0.745  1.00  0.00     0.135 A 
HETATM   34  C7  UNL     1       3.346  -1.433   0.656  1.00  0.00     0.265 A 
HETATM   35  O2  UNL     1       3.043  -2.648   0.821  1.00  0.00    -0.267 OA
ENDBRANCH  22  23
ENDBRANCH   1  22
TORSDOF 2
