REMARK  2 active torsions:
REMARK  status: ('A' for Active; 'I' for Inactive)
REMARK    1  A    between atoms: C7_8  and  C8_9 
REMARK       I    between atoms: C8_9  and  N1_11 
REMARK       I    between atoms: N2_14  and  C11_15 
REMARK    2  A    between atoms: C11_15  and  C12_17 
ROOT
HETATM    1  C8  UNL     1       2.870  -0.488   0.663  1.00  0.00     0.255 C 
HETATM    2  O1  UNL     1       2.430  -1.364   1.456  1.00  0.00    -0.267 OA
HETATM    3  N1  UNL     1       1.951   0.403   0.007  1.00  0.00    -0.330 N 
HETATM    4  C9  UNL     1       2.290   1.245  -1.132  1.00  0.00     0.147 A 
HETATM    5  C10 UNL     1       0.964   1.830  -1.615  1.00  0.00     0.147 A 
HETATM    6  N2  UNL     1      -0.047   1.318  -0.699  1.00  0.00    -0.330 N 
HETATM    7  C11 UNL     1      -1.459   1.469  -0.934  1.00  0.00     0.259 C 
HETATM    8  O2  UNL     1      -1.858   1.946  -2.030  1.00  0.00    -0.267 OA
HETATM    9  C20 UNL     1       0.529   0.428   0.295  1.00  0.00     0.255 A 
ENDROOT
BRANCH   7  10
HETATM   10  C12 UNL     1      -2.458   1.082   0.080  1.00  0.00     0.083 A 
HETATM   11  C13 UNL     1      -2.399   1.356   1.431  1.00  0.00     0.161 A 
HETATM   12  O3  UNL     1      -3.489   0.917   2.015  1.00  0.00    -0.324 OA
HETATM   13  C14 UNL     1      -4.281   0.367   1.121  1.00  0.00     0.080 A 
HETATM   14  C15 UNL     1      -3.680   0.465  -0.135  1.00  0.00     0.082 A 
HETATM   15  C19 UNL     1      -5.613  -0.200   1.519  1.00  0.00     0.068 C 
HETATM   16  N3  UNL     1      -4.115  -0.057  -1.405  1.00  0.00    -0.324 N 
HETATM   17  C16 UNL     1      -5.438  -0.480  -1.759  1.00  0.00     0.222 C 
HETATM   18  H12 UNL     1      -3.401  -0.110  -2.167  1.00  0.00     0.169 HD
HETATM   19  O4  UNL     1      -5.653  -0.882  -2.934  1.00  0.00    -0.273 OA
HETATM   20  C17 UNL     1      -6.582  -0.440  -0.798  1.00  0.00     0.103 C 
HETATM   21  C18 UNL     1      -6.231  -1.157   0.505  1.00  0.00     0.016 C 
ENDBRANCH   7  10
BRANCH   1  22
HETATM   22  C7  UNL     1       4.326  -0.401   0.425  1.00  0.00     0.038 A 
HETATM   23  C2  UNL     1       5.068  -1.510  -0.050  1.00  0.00    -0.043 A 
HETATM   24  C1  UNL     1       4.402  -2.825  -0.362  1.00  0.00     0.049 C 
HETATM   25  C3  UNL     1       6.457  -1.385  -0.221  1.00  0.00     0.050 A 
HETATM   26  C4  UNL     1       7.101  -0.177   0.056  1.00  0.00     0.117 A 
HETATM   27  F1  UNL     1       8.441  -0.068  -0.118  1.00  0.00    -0.206 F 
HETATM   28  C5  UNL     1       6.368   0.916   0.517  1.00  0.00     0.043 A 
HETATM   29  C6  UNL     1       4.989   0.805   0.706  1.00  0.00     0.020 A 
ENDBRANCH   1  22
TORSDOF 2
