REMARK  6 active torsions:
REMARK  status: ('A' for Active; 'I' for Inactive)
REMARK       I    between atoms: C1_2  and  N1_3 
REMARK    1  A    between atoms: C1_2  and  C27_30 
REMARK       I    between atoms: N1_3  and  C2_4 
REMARK    2  A    between atoms: C2_4  and  C3_6 
REMARK    3  A    between atoms: C6_9  and  C26_29 
REMARK    4  A    between atoms: C7_10  and  C9_12 
REMARK    5  A    between atoms: C14_17  and  C15_18 
REMARK    6  A    between atoms: C20_23  and  C21_24 
ROOT
HETATM    1  O1  UNL     1       0.269  -1.155  -1.398  1.00  0.00    -0.267 OA
HETATM    2  C1  UNL     1       1.143  -1.024  -0.500  1.00  0.00     0.261 C 
HETATM    3  N1  UNL     1       0.979  -1.613   0.804  1.00  0.00    -0.289 N 
HETATM    4  C2  UNL     1      -0.265  -2.021   1.400  1.00  0.00     0.258 C 
HETATM    5  O2  UNL     1      -0.249  -2.509   2.563  1.00  0.00    -0.267 OA
HETATM    6  H1  UNL     1       1.803  -1.550   1.453  1.00  0.00     0.172 HD
ENDROOT
BRANCH   4   7
HETATM    7  C3  UNL     1      -1.573  -1.805   0.765  1.00  0.00     0.033 C 
HETATM    8  C4  UNL     1      -1.948  -2.493  -0.392  1.00  0.00     0.018 C 
HETATM    9  C5  UNL     1      -3.215  -2.280  -0.943  1.00  0.00     0.014 C 
HETATM   10  C6  UNL     1      -4.151  -1.440  -0.297  1.00  0.00    -0.014 C 
HETATM   11  C7  UNL     1      -3.649  -0.533   0.657  1.00  0.00    -0.013 C 
HETATM   12  C8  UNL     1      -2.454  -0.872   1.322  1.00  0.00     0.030 C 
BRANCH  10  13
HETATM   13  C26 UNL     1      -5.536  -2.000  -0.155  1.00  0.00    -0.014 A 
HETATM   14  C21 UNL     1      -6.748  -1.244  -0.209  1.00  0.00    -0.014 A 
HETATM   15  C22 UNL     1      -7.980  -1.946  -0.150  1.00  0.00     0.013 A 
HETATM   16  C23 UNL     1      -8.032  -3.330  -0.023  1.00  0.00     0.001 A 
HETATM   17  C24 UNL     1      -6.859  -4.056   0.080  1.00  0.00     0.001 A 
HETATM   18  C25 UNL     1      -5.631  -3.404   0.042  1.00  0.00     0.013 A 
BRANCH  14  19
HETATM   19  C20 UNL     1      -6.827   0.253  -0.211  1.00  0.00    -0.014 C 
HETATM   20  C15 UNL     1      -6.303   0.950   0.899  1.00  0.00    -0.014 C 
HETATM   21  C16 UNL     1      -7.219   1.642   1.723  1.00  0.00     0.013 C 
HETATM   22  C17 UNL     1      -8.456   2.034   1.201  1.00  0.00     0.001 C 
HETATM   23  C18 UNL     1      -8.783   1.699  -0.117  1.00  0.00     0.001 C 
HETATM   24  C19 UNL     1      -7.958   0.826  -0.836  1.00  0.00     0.013 C 
BRANCH  20  25
HETATM   25  C14 UNL     1      -5.005   1.634   0.677  1.00  0.00    -0.014 A 
HETATM   26  C9  UNL     1      -3.807   0.925   0.427  1.00  0.00    -0.014 A 
HETATM   27  C10 UNL     1      -2.669   1.649  -0.010  1.00  0.00     0.013 A 
HETATM   28  C11 UNL     1      -2.683   3.045  -0.099  1.00  0.00     0.001 A 
HETATM   29  C12 UNL     1      -3.845   3.747   0.196  1.00  0.00     0.001 A 
HETATM   30  C13 UNL     1      -4.998   3.053   0.559  1.00  0.00     0.013 A 
ENDBRANCH  20  25
ENDBRANCH  14  19
ENDBRANCH  10  13
ENDBRANCH   4   7
BRANCH   2  31
HETATM   31  C27 UNL     1       2.423  -0.399  -0.848  1.00  0.00     0.071 A 
HETATM   32  C28 UNL     1       3.487  -1.204  -1.263  1.00  0.00     0.032 A 
HETATM   33  C29 UNL     1       4.749  -0.641  -1.519  1.00  0.00    -0.024 A 
HETATM   34  C30 UNL     1       4.924   0.758  -1.425  1.00  0.00    -0.012 A 
HETATM   35  C46 UNL     1       5.866  -1.543  -1.866  1.00  0.00     0.013 C 
HETATM   36  C31 UNL     1       3.836   1.560  -1.036  1.00  0.00     0.056 A 
HETATM   37  C33 UNL     1       6.213   1.399  -1.748  1.00  0.00    -0.014 A 
HETATM   38  C32 UNL     1       2.597   0.986  -0.737  1.00  0.00     0.133 A 
HETATM   39  F1  UNL     1       1.575   1.774  -0.319  1.00  0.00    -0.205 F 
HETATM   40  C34 UNL     1       6.289   2.259  -2.859  1.00  0.00     0.013 A 
HETATM   41  C38 UNL     1       7.359   1.203  -0.940  1.00  0.00    -0.014 A 
HETATM   42  C35 UNL     1       7.485   2.907  -3.173  1.00  0.00     0.001 A 
HETATM   43  C36 UNL     1       8.615   2.714  -2.374  1.00  0.00     0.001 A 
HETATM   44  C37 UNL     1       8.549   1.876  -1.261  1.00  0.00     0.013 A 
HETATM   45  C39 UNL     1       7.314   0.366   0.282  1.00  0.00    -0.015 A 
HETATM   46  C40 UNL     1       7.532   0.974   1.533  1.00  0.00     0.013 A 
HETATM   47  C44 UNL     1       7.089  -1.025   0.219  1.00  0.00    -0.025 A 
HETATM   48  C41 UNL     1       7.461   0.223   2.700  1.00  0.00     0.001 A 
HETATM   49  C42 UNL     1       7.225  -1.152   2.638  1.00  0.00     0.001 A 
HETATM   50  C43 UNL     1       7.054  -1.774   1.401  1.00  0.00     0.012 A 
HETATM   51  C45 UNL     1       6.922  -1.732  -1.068  1.00  0.00     0.013 C 
ENDBRANCH   2  31
TORSDOF 6
