REMARK  4 active torsions:
REMARK  status: ('A' for Active; 'I' for Inactive)
REMARK    1  A    between atoms: C1_2  and  C2_3 
REMARK    2  A    between atoms: C1_2  and  C20_21 
REMARK    3  A    between atoms: C5_6  and  C6_7 
REMARK    4  A    between atoms: C9_10  and  C10_11 
ROOT
HETATM    1  C2  UNL     1      -0.275  -1.919   0.476  1.00  0.00     0.015 A 
HETATM    2  C3  UNL     1       0.676  -2.798  -0.068  1.00  0.00     0.016 A 
HETATM    3  C4  UNL     1       1.993  -2.379  -0.277  1.00  0.00     0.013 A 
HETATM    4  C5  UNL     1       2.390  -1.075   0.066  1.00  0.00    -0.026 A 
HETATM    5  C18 UNL     1       1.442  -0.201   0.627  1.00  0.00     0.013 A 
HETATM    6  C19 UNL     1       0.125  -0.620   0.834  1.00  0.00     0.016 A 
ENDROOT
BRANCH   1   7
HETATM    7  C1  UNL     1      -1.665  -2.381   0.707  1.00  0.00     0.192 C 
HETATM    8  O1  UNL     1      -1.863  -3.593   0.996  1.00  0.00    -0.287 OA
BRANCH   7   9
HETATM    9  C20 UNL     1      -2.831  -1.470   0.610  1.00  0.00     0.018 A 
HETATM   10  C21 UNL     1      -2.847  -0.412  -0.314  1.00  0.00     0.016 A 
HETATM   11  C22 UNL     1      -3.953   0.436  -0.402  1.00  0.00     0.016 A 
HETATM   12  C23 UNL     1      -5.076   0.233   0.418  1.00  0.00     0.008 A 
HETATM   13  C24 UNL     1      -5.077  -0.850   1.322  1.00  0.00     0.080 A 
HETATM   14  C33 UNL     1      -6.230   1.169   0.358  1.00  0.00    -0.017 A 
HETATM   15  C25 UNL     1      -3.959  -1.684   1.419  1.00  0.00     0.053 A 
HETATM   16  O2  UNL     1      -6.169  -1.077   2.166  1.00  0.00    -0.350 OA
HETATM   17  C26 UNL     1      -7.469  -1.449   1.700  1.00  0.00     0.180 C 
HETATM   18  C27 UNL     1      -7.847  -0.792   0.367  1.00  0.00     0.066 C 
HETATM   19  C28 UNL     1      -7.562   0.689   0.378  1.00  0.00    -0.045 A 
HETATM   20  C29 UNL     1      -8.630   1.603   0.379  1.00  0.00     0.008 A 
HETATM   21  C30 UNL     1      -8.384   2.977   0.344  1.00  0.00     0.001 A 
HETATM   22  C31 UNL     1      -7.073   3.452   0.311  1.00  0.00     0.001 A 
HETATM   23  C32 UNL     1      -6.002   2.557   0.319  1.00  0.00     0.013 A 
ENDBRANCH   7   9
ENDBRANCH   1   7
BRANCH   4  24
HETATM   24  C6  UNL     1       3.790  -0.629  -0.156  1.00  0.00    -0.026 A 
HETATM   25  C7  UNL     1       4.450   0.159   0.803  1.00  0.00     0.013 A 
HETATM   26  C8  UNL     1       5.767   0.577   0.594  1.00  0.00     0.013 A 
HETATM   27  C9  UNL     1       6.454   0.219  -0.579  1.00  0.00    -0.026 A 
HETATM   28  C16 UNL     1       5.793  -0.568  -1.538  1.00  0.00     0.013 A 
HETATM   29  C17 UNL     1       4.477  -0.988  -1.328  1.00  0.00     0.013 A 
BRANCH  27  30
HETATM   30  C10 UNL     1       7.853   0.664  -0.801  1.00  0.00    -0.026 A 
HETATM   31  C11 UNL     1       8.782   0.661   0.257  1.00  0.00     0.012 A 
HETATM   32  C12 UNL     1      10.099   1.081   0.044  1.00  0.00     0.001 A 
HETATM   33  C13 UNL     1      10.503   1.508  -1.223  1.00  0.00     0.000 A 
HETATM   34  C14 UNL     1       9.591   1.516  -2.280  1.00  0.00     0.001 A 
HETATM   35  C15 UNL     1       8.273   1.097  -2.074  1.00  0.00     0.012 A 
ENDBRANCH  27  30
ENDBRANCH   4  24
TORSDOF 4
