REMARK  2 active torsions:
REMARK  status: ('A' for Active; 'I' for Inactive)
REMARK       I    between atoms: N2_6  and  C5_7 
REMARK    1  A    between atoms: C5_7  and  C6_9 
REMARK    2  A    between atoms: C15_20  and  C16_21 
ROOT
HETATM    1  C1  UNL     1      -3.031   1.968  -0.580  1.00  0.00     0.311 C 
HETATM    2  N1  UNL     1      -2.028   1.018  -1.083  1.00  0.00     0.100 N 
HETATM    3  C2  UNL     1      -2.614   0.125  -2.099  1.00  0.00     0.275 C 
HETATM    4  C3  UNL     1      -1.569  -0.820  -2.724  1.00  0.00     0.050 C 
HETATM    5  C4  UNL     1      -0.194  -0.159  -2.907  1.00  0.00     0.128 C 
HETATM    6  N2  UNL     1       0.538   0.059  -1.643  1.00  0.00    -0.340 N 
HETATM    7  C5  UNL     1       1.857   0.640  -1.725  1.00  0.00     0.255 C 
HETATM    8  O1  UNL     1       2.123   1.449  -2.656  1.00  0.00    -0.267 OA
HETATM    9  C13 UNL     1      -0.014  -0.304  -0.322  1.00  0.00     0.134 A 
HETATM   10  C14 UNL     1      -0.152   0.907   0.599  1.00  0.00     0.077 A 
HETATM   11  C15 UNL     1      -1.398   0.256   0.012  1.00  0.00     0.208 A 
ENDROOT
BRANCH   7  12
HETATM   12  C6  UNL     1       2.906   0.329  -0.732  1.00  0.00     0.050 A 
HETATM   13  C7  UNL     1       3.100  -0.996  -0.274  1.00  0.00     0.135 A 
HETATM   14  N3  UNL     1       4.076  -1.281   0.636  1.00  0.00    -0.252 NA
HETATM   15  C8  UNL     1       4.868  -0.285   1.099  1.00  0.00     0.107 A 
HETATM   16  S1  UNL     1       6.115  -0.413   2.210  1.00  0.00    -0.082 SA
HETATM   17  C11 UNL     1       4.737   1.022   0.676  1.00  0.00     0.001 A 
HETATM   18  C9  UNL     1       6.507   1.235   2.164  1.00  0.00     0.053 A 
HETATM   19  C10 UNL     1       5.657   1.890   1.271  1.00  0.00     0.021 A 
HETATM   20  C12 UNL     1       3.754   1.350  -0.256  1.00  0.00     0.032 A 
ENDBRANCH   7  12
BRANCH  11  21
HETATM   21  C16 UNL     1      -2.258  -0.518   0.993  1.00  0.00    -0.018 A 
HETATM   22  C17 UNL     1      -2.794   0.129   2.121  1.00  0.00     0.010 A 
HETATM   23  C18 UNL     1      -3.599  -0.573   3.023  1.00  0.00     0.001 A 
HETATM   24  C19 UNL     1      -3.876  -1.925   2.808  1.00  0.00     0.000 A 
HETATM   25  C20 UNL     1      -3.345  -2.578   1.693  1.00  0.00     0.001 A 
HETATM   26  C21 UNL     1      -2.539  -1.879   0.789  1.00  0.00     0.010 A 
ENDBRANCH  11  21
TORSDOF 2
