REMARK  3 active torsions:
REMARK  status: ('A' for Active; 'I' for Inactive)
REMARK    1  A    between atoms: N1_8  and  C7_9 
REMARK    2  A    between atoms: C14_16  and  N2_17 
REMARK    3  A    between atoms: C17_20  and  C18_21 
ROOT
HETATM    1  C7  UNL     1      -1.455   2.050  -0.665  1.00  0.00     0.041 A 
HETATM    2  C8  UNL     1      -2.060   3.257  -1.043  1.00  0.00     0.030 A 
HETATM    3  C9  UNL     1      -1.447   4.477  -0.757  1.00  0.00     0.003 A 
HETATM    4  C10 UNL     1      -0.222   4.509  -0.089  1.00  0.00     0.012 A 
HETATM    5  C11 UNL     1       0.400   3.314   0.301  1.00  0.00    -0.024 A 
HETATM    6  C12 UNL     1       1.629   3.344   0.974  1.00  0.00     0.014 A 
HETATM    7  C13 UNL     1       2.248   2.157   1.366  1.00  0.00     0.030 A 
HETATM    8  C14 UNL     1       1.649   0.914   1.098  1.00  0.00     0.032 A 
HETATM    9  C20 UNL     1       0.420   0.883   0.417  1.00  0.00     0.044 A 
HETATM   10  C21 UNL     1      -0.216   2.070   0.015  1.00  0.00     0.003 A 
ENDROOT
BRANCH   8  11
HETATM   11  N2  UNL     1       2.292  -0.317   1.501  1.00  0.00    -0.357 N 
HETATM   12  C15 UNL     1       2.266  -1.475   0.594  1.00  0.00     0.131 C 
HETATM   13  C16 UNL     1       3.388  -2.483   0.872  1.00  0.00     0.086 C 
HETATM   14  C17 UNL     1       4.756  -1.854   0.766  1.00  0.00     0.146 C 
HETATM   15  N3  UNL     1       5.157  -0.886   1.546  1.00  0.00    -0.132 NA
HETATM   16  O2  UNL     1       4.431  -0.216   2.521  1.00  0.00    -0.236 OA
HETATM   17  C19 UNL     1       3.037  -0.384   2.763  1.00  0.00     0.329 C 
BRANCH  14  18
HETATM   18  C18 UNL     1       5.722  -2.406  -0.247  1.00  0.00     0.432 C 
HETATM   19  F1  UNL     1       5.169  -2.318  -1.511  1.00  0.00    -0.165 F 
HETATM   20  F2  UNL     1       5.986  -3.732   0.042  1.00  0.00    -0.165 F 
HETATM   21  F3  UNL     1       6.913  -1.700  -0.232  1.00  0.00    -0.165 F 
ENDBRANCH  14  18
ENDBRANCH   8  11
BRANCH   1  22
HETATM   22  N1  UNL     1      -2.116   0.813  -0.977  1.00  0.00    -0.372 N 
HETATM   23  C6  UNL     1      -1.933   0.272  -2.333  1.00  0.00     0.201 C 
HETATM   24  C5  UNL     1      -2.801  -0.922  -2.643  1.00  0.00     0.145 C 
HETATM   25  C4  UNL     1      -3.829  -1.450  -1.679  1.00  0.00     0.090 C 
HETATM   26  O1  UNL     1      -2.695  -1.453  -3.738  1.00  0.00    -0.296 OA
HETATM   27  C2  UNL     1      -3.468  -1.146  -0.212  1.00  0.00    -0.025 C 
HETATM   28  C1  UNL     1      -2.247  -1.987   0.229  1.00  0.00     0.017 C 
HETATM   29  C3  UNL     1      -4.665  -1.513   0.689  1.00  0.00     0.017 C 
HETATM   30  C22 UNL     1      -3.178   0.363  -0.069  1.00  0.00     0.132 C 
ENDBRANCH   1  22
TORSDOF 3
