REMARK  7 active torsions:
REMARK  status: ('A' for Active; 'I' for Inactive)
REMARK       I    between atoms: C1_2  and  N1_3 
REMARK    1  A    between atoms: C1_2  and  C27_30 
REMARK       I    between atoms: N1_3  and  C2_4 
REMARK    2  A    between atoms: C2_4  and  C3_6 
REMARK    3  A    between atoms: C6_9  and  C26_29 
REMARK    4  A    between atoms: C7_10  and  C9_12 
REMARK    5  A    between atoms: C14_17  and  C15_18 
REMARK    6  A    between atoms: C20_23  and  C21_24 
REMARK    7  A    between atoms: C32_35  and  O3_36 
ROOT
HETATM    1  O1  UNL     1       1.799  -3.354  -1.386  1.00  0.00    -0.267 OA
HETATM    2  C1  UNL     1       1.754  -2.586  -0.385  1.00  0.00     0.261 C 
HETATM    3  N1  UNL     1       0.515  -1.979   0.011  1.00  0.00    -0.289 N 
HETATM    4  C2  UNL     1      -0.740  -2.200  -0.651  1.00  0.00     0.258 C 
HETATM    5  O2  UNL     1      -0.930  -3.260  -1.309  1.00  0.00    -0.267 OA
HETATM    6  H1  UNL     1       0.526  -1.332   0.833  1.00  0.00     0.172 HD
ENDROOT
BRANCH   2   7
HETATM    7  C27 UNL     1       2.995  -2.261   0.351  1.00  0.00     0.066 A 
HETATM    8  C28 UNL     1       3.274  -0.916   0.633  1.00  0.00     0.032 A 
HETATM    9  C29 UNL     1       4.419  -0.550   1.350  1.00  0.00    -0.018 A 
HETATM   10  C30 UNL     1       5.312  -1.544   1.813  1.00  0.00    -0.043 A 
HETATM   11  C46 UNL     1       4.723   0.885   1.480  1.00  0.00    -0.014 A 
HETATM   12  C31 UNL     1       5.046  -2.888   1.495  1.00  0.00     0.045 A 
HETATM   13  C33 UNL     1       6.426  -1.243   2.804  1.00  0.00     0.059 C 
HETATM   14  C32 UNL     1       3.899  -3.256   0.783  1.00  0.00     0.082 A 
HETATM   15  C34 UNL     1       7.452  -0.165   2.416  1.00  0.00     0.124 C 
HETATM   16  N2  UNL     1       8.031  -0.381   1.087  1.00  0.00    -0.389 N 
HETATM   17  C35 UNL     1       7.395  -0.197  -0.202  1.00  0.00     0.039 A 
HETATM   18  H24 UNL     1       9.023  -0.721   1.083  1.00  0.00     0.159 HD
HETATM   19  C36 UNL     1       7.936  -0.906  -1.291  1.00  0.00     0.030 A 
HETATM   20  C40 UNL     1       6.316   0.706  -0.448  1.00  0.00     0.001 A 
HETATM   21  C37 UNL     1       7.419  -0.761  -2.580  1.00  0.00     0.002 A 
HETATM   22  C38 UNL     1       6.360   0.117  -2.811  1.00  0.00     0.001 A 
HETATM   23  C39 UNL     1       5.816   0.850  -1.755  1.00  0.00     0.014 A 
HETATM   24  C41 UNL     1       5.652   1.493   0.609  1.00  0.00    -0.013 A 
HETATM   25  C42 UNL     1       5.909   2.868   0.719  1.00  0.00     0.013 A 
HETATM   26  C43 UNL     1       5.251   3.629   1.689  1.00  0.00     0.001 A 
HETATM   27  C44 UNL     1       4.327   3.025   2.545  1.00  0.00     0.001 A 
HETATM   28  C45 UNL     1       4.061   1.658   2.444  1.00  0.00     0.013 A 
BRANCH  14  29
HETATM   29  O3  UNL     1       3.675  -4.616   0.559  1.00  0.00    -0.360 OA
HETATM   30  H19 UNL     1       2.831  -4.979   0.141  1.00  0.00     0.217 HD
ENDBRANCH  14  29
ENDBRANCH   2   7
BRANCH   4  31
HETATM   31  C3  UNL     1      -1.823  -1.195  -0.552  1.00  0.00     0.033 C 
HETATM   32  C4  UNL     1      -1.528   0.154  -0.304  1.00  0.00     0.018 C 
HETATM   33  C5  UNL     1      -2.549   1.107  -0.318  1.00  0.00     0.014 C 
HETATM   34  C6  UNL     1      -3.872   0.715  -0.599  1.00  0.00    -0.014 C 
HETATM   35  C7  UNL     1      -4.196  -0.642  -0.415  1.00  0.00    -0.013 C 
HETATM   36  C8  UNL     1      -3.171  -1.586  -0.644  1.00  0.00     0.030 C 
BRANCH  34  37
HETATM   37  C26 UNL     1      -4.529   1.447  -1.713  1.00  0.00    -0.014 A 
HETATM   38  C21 UNL     1      -5.890   1.845  -1.702  1.00  0.00    -0.014 A 
HETATM   39  C22 UNL     1      -6.404   2.525  -2.835  1.00  0.00     0.013 A 
HETATM   40  C23 UNL     1      -5.604   2.813  -3.937  1.00  0.00     0.001 A 
HETATM   41  C24 UNL     1      -4.278   2.404  -3.954  1.00  0.00     0.001 A 
HETATM   42  C25 UNL     1      -3.748   1.719  -2.862  1.00  0.00     0.013 A 
BRANCH  38  43
HETATM   43  C20 UNL     1      -6.844   1.507  -0.608  1.00  0.00    -0.014 C 
HETATM   44  C15 UNL     1      -7.184   0.151  -0.424  1.00  0.00    -0.014 C 
HETATM   45  C16 UNL     1      -8.522  -0.220  -0.680  1.00  0.00     0.013 C 
HETATM   46  C17 UNL     1      -9.530   0.748  -0.650  1.00  0.00     0.001 C 
HETATM   47  C18 UNL     1      -9.199   2.080  -0.404  1.00  0.00     0.001 C 
HETATM   48  C19 UNL     1      -7.854   2.463  -0.363  1.00  0.00     0.013 C 
BRANCH  44  49
HETATM   49  C14 UNL     1      -6.520  -0.594   0.681  1.00  0.00    -0.014 A 
HETATM   50  C9  UNL     1      -5.155  -0.982   0.675  1.00  0.00    -0.014 A 
HETATM   51  C10 UNL     1      -4.637  -1.649   1.814  1.00  0.00     0.013 A 
HETATM   52  C11 UNL     1      -5.437  -1.939   2.916  1.00  0.00     0.001 A 
HETATM   53  C12 UNL     1      -6.767  -1.549   2.925  1.00  0.00     0.001 A 
HETATM   54  C13 UNL     1      -7.299  -0.877   1.830  1.00  0.00     0.013 A 
ENDBRANCH  44  49
ENDBRANCH  38  43
ENDBRANCH  34  37
ENDBRANCH   4  31
TORSDOF 7
