REMARK  2 active torsions:
REMARK  status: ('A' for Active; 'I' for Inactive)
REMARK    1  A    between atoms: C6_6  and  N1_7 
REMARK       I    between atoms: N1_7  and  C7_8 
REMARK       I    between atoms: C7_8  and  N2_10 
REMARK    2  A    between atoms: C19_23  and  C20_24 
ROOT
HETATM    1  N1  UNL     1      -0.475  -0.966  -0.022  1.00  0.00    -0.308 N 
HETATM    2  C7  UNL     1       0.520  -1.326   0.952  1.00  0.00     0.327 C 
HETATM    3  O1  UNL     1       0.386  -2.381   1.631  1.00  0.00    -0.246 OA
HETATM    4  N2  UNL     1       1.668  -0.479   1.165  1.00  0.00    -0.297 N 
HETATM    5  C8  UNL     1       2.914  -1.017   1.723  1.00  0.00     0.140 C 
HETATM    6  C9  UNL     1       3.949  -1.317   0.624  1.00  0.00     0.018 C 
HETATM    7  C10 UNL     1       3.430  -2.343  -0.395  1.00  0.00     0.013 C 
HETATM    8  C11 UNL     1       4.457  -0.034  -0.060  1.00  0.00     0.128 C 
HETATM    9  N3  UNL     1       3.404   0.638  -0.830  1.00  0.00    -0.383 N 
HETATM   10  C12 UNL     1       3.522   0.710  -2.288  1.00  0.00     0.150 C 
HETATM   11  C13 UNL     1       2.443   1.465  -0.149  1.00  0.00     0.057 A 
HETATM   12  C14 UNL     1       2.311   2.822  -0.492  1.00  0.00     0.031 A 
HETATM   13  C15 UNL     1       1.359   3.624   0.143  1.00  0.00     0.002 A 
HETATM   14  C16 UNL     1       0.527   3.079   1.121  1.00  0.00     0.002 A 
HETATM   15  C17 UNL     1       0.641   1.731   1.464  1.00  0.00     0.032 A 
HETATM   16  C18 UNL     1       1.599   0.918   0.838  1.00  0.00     0.065 A 
HETATM   17  H7  UNL     1      -0.335  -0.097  -0.583  1.00  0.00     0.170 HD
ENDROOT
BRANCH   1  18
HETATM   18  C6  UNL     1      -1.720  -1.668  -0.177  1.00  0.00     0.048 A 
HETATM   19  C5  UNL     1      -1.731  -3.064  -0.312  1.00  0.00     0.030 A 
HETATM   20  C4  UNL     1      -2.934  -3.747  -0.485  1.00  0.00     0.003 A 
HETATM   21  C3  UNL     1      -4.139  -3.046  -0.536  1.00  0.00     0.007 A 
HETATM   22  C2  UNL     1      -4.154  -1.647  -0.422  1.00  0.00    -0.049 A 
HETATM   23  C1  UNL     1      -5.468  -0.912  -0.478  1.00  0.00     0.049 C 
HETATM   24  C19 UNL     1      -2.935  -0.950  -0.243  1.00  0.00     0.008 A 
BRANCH  24  25
HETATM   25  C20 UNL     1      -2.928   0.518  -0.082  1.00  0.00    -0.006 A 
HETATM   26  C21 UNL     1      -3.115   1.095   1.181  1.00  0.00     0.128 A 
HETATM   27  N4  UNL     1      -3.092   2.447   1.324  1.00  0.00    -0.272 NA
HETATM   28  C22 UNL     1      -2.886   3.273   0.263  1.00  0.00     0.116 A 
HETATM   29  C23 UNL     1      -2.688   2.739  -1.013  1.00  0.00     0.020 A 
HETATM   30  C24 UNL     1      -2.712   1.355  -1.185  1.00  0.00     0.015 A 
ENDBRANCH  24  25
ENDBRANCH   1  18
TORSDOF 2
