REMARK  3 active torsions:
REMARK  status: ('A' for Active; 'I' for Inactive)
REMARK       I    between atoms: C1_2  and  N1_3 
REMARK    1  A    between atoms: C1_2  and  C9_12 
REMARK    2  A    between atoms: N1_3  and  C2_4 
REMARK    3  A    between atoms: C2_4  and  C3_5 
ROOT
HETATM    1  C9  UNL     1      -0.486   1.024   0.430  1.00  0.00     0.048 A 
HETATM    2  C10 UNL     1      -0.298   2.399   0.235  1.00  0.00     0.018 A 
HETATM    3  C11 UNL     1      -1.316   3.188  -0.283  1.00  0.00     0.002 A 
HETATM    4  C12 UNL     1      -2.537   2.618  -0.621  1.00  0.00     0.008 A 
HETATM    5  C13 UNL     1      -2.785   1.250  -0.404  1.00  0.00    -0.041 A 
HETATM    6  C14 UNL     1      -1.755   0.432   0.155  1.00  0.00     0.053 A 
HETATM    7  C15 UNL     1      -2.007  -0.997   0.514  1.00  0.00     0.253 C 
HETATM    8  O2  UNL     1      -1.387  -1.529   1.474  1.00  0.00    -0.268 OA
HETATM    9  N2  UNL     1      -2.948  -1.792  -0.207  1.00  0.00    -0.357 N 
HETATM   10  C16 UNL     1      -4.384  -1.652   0.016  1.00  0.00     0.123 C 
HETATM   11  C17 UNL     1      -4.795  -0.190   0.206  1.00  0.00     0.024 C 
HETATM   12  C18 UNL     1      -4.138   0.717  -0.841  1.00  0.00     0.041 C 
HETATM   13  H11 UNL     1      -2.623  -2.737  -0.513  1.00  0.00     0.162 HD
ENDROOT
BRANCH   1  14
HETATM   14  C1  UNL     1       0.693   0.236   0.854  1.00  0.00     0.252 C 
HETATM   15  O1  UNL     1       1.388   0.636   1.828  1.00  0.00    -0.268 OA
HETATM   16  N1  UNL     1       1.078  -0.942   0.129  1.00  0.00    -0.353 N 
HETATM   17  H1  UNL     1       0.534  -1.222  -0.718  1.00  0.00     0.163 HD
BRANCH  16  18
HETATM   18  C2  UNL     1       2.229  -1.756   0.512  1.00  0.00     0.161 C 
BRANCH  18  19
HETATM   19  C3  UNL     1       3.508  -1.052   0.150  1.00  0.00    -0.039 A 
HETATM   20  C4  UNL     1       4.341  -0.522   1.149  1.00  0.00     0.009 A 
HETATM   21  C5  UNL     1       5.517   0.150   0.802  1.00  0.00     0.002 A 
HETATM   22  C6  UNL     1       5.868   0.301  -0.542  1.00  0.00     0.024 A 
HETATM   23  C7  UNL     1       5.042  -0.220  -1.544  1.00  0.00     0.034 A 
HETATM   24 CL1  UNL     1       5.480  -0.026  -3.231  1.00  0.00    -0.084 Cl
HETATM   25  C8  UNL     1       3.864  -0.893  -1.199  1.00  0.00     0.032 A 
ENDBRANCH  18  19
ENDBRANCH  16  18
ENDBRANCH   1  14
TORSDOF 3
