REMARK  6 active torsions:
REMARK  status: ('A' for Active; 'I' for Inactive)
REMARK    1  A    between atoms: C1_2  and  C2_3 
REMARK       I    between atoms: C1_2  and  N1_24 
REMARK    2  A    between atoms: N1_24  and  C22_25 
REMARK    3  A    between atoms: C25_28  and  C45_48 
REMARK    4  A    between atoms: C26_29  and  C28_31 
REMARK    5  A    between atoms: C33_36  and  C34_37 
REMARK    6  A    between atoms: C39_42  and  C40_43 
ROOT
HETATM    1  O1  UNL     1       0.549  -1.029  -0.079  1.00  0.00    -0.267 OA
HETATM    2  C1  UNL     1       0.914  -0.455   0.981  1.00  0.00     0.256 C 
HETATM    3  N1  UNL     1      -0.069  -0.078   1.961  1.00  0.00    -0.323 N 
HETATM    4  H14 UNL     1       0.243   0.042   2.952  1.00  0.00     0.169 HD
ENDROOT
BRANCH   3   5
HETATM    5  C22 UNL     1      -1.485  -0.129   1.719  1.00  0.00     0.035 C 
HETATM    6  C23 UNL     1      -2.327  -0.669   2.695  1.00  0.00     0.030 C 
HETATM    7  C24 UNL     1      -3.710  -0.657   2.509  1.00  0.00     0.015 C 
HETATM    8  C25 UNL     1      -4.263  -0.065   1.354  1.00  0.00    -0.014 C 
HETATM    9  C26 UNL     1      -3.416   0.110   0.241  1.00  0.00    -0.012 C 
HETATM   10  C27 UNL     1      -2.041   0.299   0.502  1.00  0.00     0.042 C 
BRANCH   8  11
HETATM   11  C45 UNL     1      -5.300   0.969   1.618  1.00  0.00    -0.014 A 
HETATM   12  C40 UNL     1      -6.469   1.130   0.835  1.00  0.00    -0.014 A 
HETATM   13  C41 UNL     1      -7.390   2.150   1.186  1.00  0.00     0.013 A 
HETATM   14  C42 UNL     1      -7.168   2.983   2.278  1.00  0.00     0.001 A 
HETATM   15  C43 UNL     1      -6.010   2.845   3.028  1.00  0.00     0.001 A 
HETATM   16  C44 UNL     1      -5.082   1.860   2.699  1.00  0.00     0.013 A 
BRANCH  12  17
HETATM   17  C39 UNL     1      -6.740   0.347  -0.398  1.00  0.00    -0.014 C 
HETATM   18  C34 UNL     1      -5.941   0.631  -1.524  1.00  0.00    -0.014 C 
HETATM   19  C35 UNL     1      -6.582   1.260  -2.615  1.00  0.00     0.013 C 
HETATM   20  C36 UNL     1      -7.968   1.142  -2.773  1.00  0.00     0.001 C 
HETATM   21  C37 UNL     1      -8.715   0.451  -1.817  1.00  0.00     0.001 C 
HETATM   22  C38 UNL     1      -8.101   0.039  -0.630  1.00  0.00     0.013 C 
BRANCH  18  23
HETATM   23  C33 UNL     1      -4.848  -0.329  -1.868  1.00  0.00    -0.014 A 
HETATM   24  C28 UNL     1      -3.730  -0.610  -1.030  1.00  0.00    -0.014 A 
HETATM   25  C29 UNL     1      -2.851  -1.659  -1.409  1.00  0.00     0.013 A 
HETATM   26  C30 UNL     1      -3.020  -2.366  -2.595  1.00  0.00     0.001 A 
HETATM   27  C31 UNL     1      -4.087  -2.068  -3.426  1.00  0.00     0.001 A 
HETATM   28  C32 UNL     1      -4.998  -1.082  -3.061  1.00  0.00     0.013 A 
ENDBRANCH  18  23
ENDBRANCH  12  17
ENDBRANCH   8  11
ENDBRANCH   3   5
BRANCH   2  29
HETATM   29  C2  UNL     1       2.362  -0.246   1.229  1.00  0.00     0.033 A 
HETATM   30  C3  UNL     1       3.312  -1.016   0.542  1.00  0.00     0.030 A 
HETATM   31  C4  UNL     1       4.690  -0.859   0.774  1.00  0.00    -0.010 A 
HETATM   32  C5  UNL     1       5.130   0.097   1.728  1.00  0.00     0.021 A 
HETATM   33  C21 UNL     1       5.608  -1.763   0.037  1.00  0.00    -0.014 A 
HETATM   34  C6  UNL     1       4.170   0.866   2.407  1.00  0.00     0.017 A 
HETATM   35  C8  UNL     1       6.556   0.304   2.091  1.00  0.00     0.164 C 
HETATM   36  C7  UNL     1       2.808   0.705   2.156  1.00  0.00     0.018 A 
HETATM   37  O2  UNL     1       6.853   0.445   3.307  1.00  0.00    -0.292 OA
HETATM   38  C9  UNL     1       7.669   0.368   1.083  1.00  0.00     0.123 C 
HETATM   39  C10 UNL     1       7.212   0.970  -0.227  1.00  0.00    -0.040 A 
HETATM   40  C11 UNL     1       7.346   2.352  -0.445  1.00  0.00     0.008 A 
HETATM   41  C15 UNL     1       6.625   0.164  -1.229  1.00  0.00    -0.018 A 
HETATM   42  C12 UNL     1       6.934   2.921  -1.651  1.00  0.00     0.001 A 
HETATM   43  C13 UNL     1       6.383   2.118  -2.652  1.00  0.00     0.001 A 
HETATM   44  C14 UNL     1       6.227   0.743  -2.443  1.00  0.00     0.013 A 
HETATM   45  C16 UNL     1       6.438  -1.285  -1.005  1.00  0.00    -0.014 A 
HETATM   46  C17 UNL     1       7.169  -2.194  -1.784  1.00  0.00     0.013 A 
HETATM   47  C18 UNL     1       7.091  -3.563  -1.527  1.00  0.00     0.001 A 
HETATM   48  C19 UNL     1       6.278  -4.040  -0.496  1.00  0.00     0.001 A 
HETATM   49  C20 UNL     1       5.534  -3.146   0.276  1.00  0.00     0.013 A 
ENDBRANCH   2  29
TORSDOF 6
