REMARK  4 active torsions:
REMARK  status: ('A' for Active; 'I' for Inactive)
REMARK    1  A    between atoms: C1_2  and  C2_3 
REMARK       I    between atoms: C1_2  and  N4_16 
REMARK    2  A    between atoms: N1_5  and  C4_6 
REMARK    3  A    between atoms: C7_10  and  C8_11 
REMARK    4  A    between atoms: C15_21  and  C16_22 
ROOT
HETATM    1  C2  UNL     1       0.082  -1.282  -0.379  1.00  0.00     0.114 A 
HETATM    2  C3  UNL     1       0.540  -0.005   0.259  1.00  0.00     0.140 A 
HETATM    3  N1  UNL     1       1.962  -0.144  -0.107  1.00  0.00    -0.364 N 
HETATM    4  C11 UNL     1       1.535  -1.398  -0.752  1.00  0.00     0.140 A 
ENDROOT
BRANCH   1   5
HETATM    5  C1  UNL     1      -0.901  -1.069  -1.514  1.00  0.00     0.227 C 
HETATM    6  O1  UNL     1      -0.467  -0.920  -2.690  1.00  0.00    -0.273 OA
HETATM    7  N4  UNL     1      -2.330  -1.039  -1.278  1.00  0.00    -0.351 N 
HETATM    8  C12 UNL     1      -3.212  -1.168  -2.457  1.00  0.00     0.126 C 
HETATM    9  C19 UNL     1      -2.868  -0.689   0.050  1.00  0.00     0.141 C 
HETATM   10  C13 UNL     1      -4.713  -1.318  -2.135  1.00  0.00     0.030 C 
HETATM   11  C14 UNL     1      -5.396  -0.118  -1.436  1.00  0.00     0.076 C 
HETATM   12  S1  UNL     1      -4.355   1.379  -1.251  1.00  0.00    -0.162 SA
HETATM   13  C15 UNL     1      -3.244   0.805   0.109  1.00  0.00     0.069 C 
BRANCH  13  14
HETATM   14  C16 UNL     1      -3.637   1.278   1.535  1.00  0.00     0.001 A 
HETATM   15  C17 UNL     1      -4.659   0.440   2.298  1.00  0.00     0.006 A 
HETATM   16  C18 UNL     1      -5.041   1.820   1.795  1.00  0.00     0.006 A 
ENDBRANCH  13  14
ENDBRANCH   1   5
BRANCH   3  17
HETATM   17  C4  UNL     1       3.177   0.578   0.075  1.00  0.00     0.129 A 
HETATM   18  C5  UNL     1       3.187   1.781   0.786  1.00  0.00     0.069 A 
HETATM   19  C6  UNL     1       4.398   2.455   0.934  1.00  0.00     0.122 A 
HETATM   20  N2  UNL     1       5.533   1.936   0.398  1.00  0.00    -0.245 NA
HETATM   21  C7  UNL     1       5.511   0.758  -0.280  1.00  0.00     0.132 A 
HETATM   22  N3  UNL     1       4.334   0.096  -0.448  1.00  0.00    -0.216 NA
BRANCH  21  23
HETATM   23  C8  UNL     1       6.766   0.222  -0.894  1.00  0.00     0.057 A 
HETATM   24  C9  UNL     1       7.890  -0.047   0.095  1.00  0.00     0.013 A 
HETATM   25  C10 UNL     1       7.110  -1.206  -0.499  1.00  0.00     0.013 A 
ENDBRANCH  21  23
ENDBRANCH   3  17
TORSDOF 4
