REMARK  3 active torsions:
REMARK  status: ('A' for Active; 'I' for Inactive)
REMARK    1  A    between atoms: N1_1  and  C1_2 
REMARK    2  A    between atoms: C5_6  and  C6_7 
REMARK    3  A    between atoms: C12_13  and  C13_14 
ROOT
HETATM    1  C1  UNL     1      -2.076  -2.812  -0.628  1.00  0.00     0.037 A 
HETATM    2  C2  UNL     1      -3.436  -3.060  -0.863  1.00  0.00     0.030 A 
HETATM    3  C3  UNL     1      -4.376  -2.038  -0.740  1.00  0.00     0.003 A 
HETATM    4  C4  UNL     1      -3.973  -0.756  -0.373  1.00  0.00     0.013 A 
HETATM    5  C5  UNL     1      -2.623  -0.481  -0.109  1.00  0.00    -0.013 A 
HETATM    6  C12 UNL     1      -1.657  -1.515  -0.238  1.00  0.00     0.011 A 
ENDROOT
BRANCH   6   7
HETATM    7  C13 UNL     1      -0.223  -1.230   0.004  1.00  0.00    -0.022 A 
HETATM    8  C14 UNL     1       0.439  -1.818   1.084  1.00  0.00     0.014 A 
HETATM    9  C15 UNL     1       1.773  -1.510   1.341  1.00  0.00     0.030 A 
HETATM   10  C16 UNL     1       2.483  -0.602   0.536  1.00  0.00     0.036 A 
HETATM   11  C17 UNL     1       1.807   0.014  -0.563  1.00  0.00    -0.013 A 
HETATM   12  N3  UNL     1       3.854  -0.324   0.907  1.00  0.00    -0.381 N 
HETATM   13  C18 UNL     1       0.464  -0.327  -0.816  1.00  0.00     0.023 A 
HETATM   14  C19 UNL     1       2.463   0.996  -1.509  1.00  0.00     0.163 C 
HETATM   15  N2  UNL     1       3.091   2.091  -0.778  1.00  0.00    -0.355 N 
HETATM   16  C20 UNL     1       4.270   1.877  -0.004  1.00  0.00     0.235 C 
HETATM   17  H16 UNL     1       2.702   3.057  -0.866  1.00  0.00     0.162 HD
HETATM   18  O1  UNL     1       4.838   2.851   0.558  1.00  0.00    -0.272 OA
HETATM   19  C21 UNL     1       4.807   0.494   0.163  1.00  0.00     0.222 C 
HETATM   20  H19 UNL     1       4.221  -0.762   1.782  1.00  0.00     0.160 HD
ENDBRANCH   6   7
BRANCH   1  21
HETATM   21  N1  UNL     1      -1.137  -3.879  -0.826  1.00  0.00    -0.398 N 
HETATM   22  H1  UNL     1      -0.106  -3.727  -0.785  1.00  0.00     0.156 HD
HETATM   23  H2  UNL     1      -1.469  -4.838  -1.074  1.00  0.00     0.156 HD
ENDBRANCH   1  21
BRANCH   5  24
HETATM   24  C6  UNL     1      -2.250   0.891   0.311  1.00  0.00    -0.025 A 
HETATM   25  C7  UNL     1      -1.603   1.113   1.539  1.00  0.00     0.012 A 
HETATM   26  C8  UNL     1      -1.231   2.407   1.916  1.00  0.00     0.001 A 
HETATM   27  C9  UNL     1      -1.510   3.488   1.076  1.00  0.00     0.000 A 
HETATM   28  C10 UNL     1      -2.166   3.278  -0.140  1.00  0.00     0.001 A 
HETATM   29  C11 UNL     1      -2.538   1.986  -0.521  1.00  0.00     0.012 A 
ENDBRANCH   5  24
TORSDOF 3
