REMARK  4 active torsions:
REMARK  status: ('A' for Active; 'I' for Inactive)
REMARK    1  A    between atoms: C5_5  and  C6_6 
REMARK    2  A    between atoms: C8_8  and  C9_9 
REMARK       I    between atoms: C9_9  and  N1_11 
REMARK    3  A    between atoms: N1_11  and  C10_12 
REMARK    4  A    between atoms: C10_12  and  C11_13 
ROOT
HETATM    1  C9  UNL     1       0.104  -1.364  -0.079  1.00  0.00     0.277 C 
HETATM    2  O1  UNL     1       0.165  -2.554   0.334  1.00  0.00    -0.265 OA
HETATM    3  N1  UNL     1      -1.164  -0.773  -0.390  1.00  0.00    -0.355 N 
HETATM    4  H7  UNL     1      -1.186   0.207  -0.750  1.00  0.00     0.162 HD
ENDROOT
BRANCH   1   5
HETATM    5  C8  UNL     1       1.342  -0.586  -0.237  1.00  0.00     0.171 A 
HETATM    6  C7  UNL     1       2.624  -1.022   0.022  1.00  0.00     0.080 A 
HETATM    7  C6  UNL     1       3.412   0.075  -0.283  1.00  0.00     0.097 A 
HETATM    8  N5  UNL     1       2.619   1.087  -0.696  1.00  0.00    -0.127 NA
HETATM    9  O2  UNL     1       1.392   0.656  -0.655  1.00  0.00    -0.207 OA
BRANCH   7  10
HETATM   10  C5  UNL     1       4.889   0.172  -0.189  1.00  0.00    -0.005 A 
HETATM   11  C4  UNL     1       5.665  -0.915   0.255  1.00  0.00     0.014 A 
HETATM   12  C3  UNL     1       7.057  -0.806   0.338  1.00  0.00     0.007 A 
HETATM   13  C2  UNL     1       7.698   0.384  -0.035  1.00  0.00    -0.062 A 
HETATM   14  C1  UNL     1       9.187   0.512   0.092  1.00  0.00     0.048 C 
HETATM   15  C19 UNL     1       6.929   1.475  -0.460  1.00  0.00     0.007 A 
HETATM   16  C18 UNL     1       5.537   1.368  -0.543  1.00  0.00     0.014 A 
ENDBRANCH   7  10
ENDBRANCH   1   5
BRANCH   3  17
HETATM   17  C10 UNL     1      -2.412  -1.527  -0.243  1.00  0.00     0.131 C 
BRANCH  17  18
HETATM   18  C11 UNL     1      -3.650  -0.653  -0.549  1.00  0.00     0.050 C 
HETATM   19  C12 UNL     1      -4.937  -1.524  -0.533  1.00  0.00     0.278 C 
HETATM   20  N2  UNL     1      -5.988  -1.040  -1.452  1.00  0.00     0.090 N 
HETATM   21  C13 UNL     1      -6.166   0.421  -1.507  1.00  0.00     0.347 C 
HETATM   22  H13 UNL     1      -5.754  -1.365  -2.420  1.00  0.00     0.316 HD
HETATM   23  C14 UNL     1      -6.162   1.043  -0.145  1.00  0.00     0.134 A 
HETATM   24  N3  UNL     1      -7.241   1.655   0.388  1.00  0.00    -0.244 NA
HETATM   25  N4  UNL     1      -5.095   1.044   0.682  1.00  0.00    -0.342 N 
HETATM   26  C15 UNL     1      -6.817   2.070   1.599  1.00  0.00     0.136 A 
HETATM   27  C16 UNL     1      -5.502   1.705   1.779  1.00  0.00     0.111 A 
HETATM   28  C17 UNL     1      -3.734   0.542   0.449  1.00  0.00     0.137 C 
ENDBRANCH  17  18
ENDBRANCH   3  17
TORSDOF 4
