REMARK  3 active torsions:
REMARK  status: ('A' for Active; 'I' for Inactive)
REMARK    1  A    between atoms: C3_5  and  C4_6 
REMARK    2  A    between atoms: C7_9  and  C8_10 
REMARK    3  A    between atoms: C10_12  and  C11_13 
ROOT
HETATM    1  C4  UNL     1       2.537  -0.284  -0.016  1.00  0.00     0.033 A 
HETATM    2  C5  UNL     1       1.608   0.338  -0.873  1.00  0.00     0.017 A 
HETATM    3  C6  UNL     1       0.263  -0.038  -0.863  1.00  0.00     0.013 A 
HETATM    4  C7  UNL     1      -0.189  -1.047   0.000  1.00  0.00    -0.020 A 
HETATM    5  C20 UNL     1       0.729  -1.667   0.862  1.00  0.00     0.055 A 
HETATM    6  C21 UNL     1       2.076  -1.294   0.855  1.00  0.00     0.129 A 
HETATM    7  F2  UNL     1       2.922  -1.899   1.728  1.00  0.00    -0.205 F 
ENDROOT
BRANCH   4   8
HETATM    8  C8  UNL     1      -1.620  -1.438   0.014  1.00  0.00     0.014 A 
HETATM    9  C9  UNL     1      -2.618  -0.447   0.057  1.00  0.00     0.027 A 
HETATM   10  C10 UNL     1      -3.981  -0.795   0.071  1.00  0.00    -0.025 A 
HETATM   11  C17 UNL     1      -4.337  -2.153   0.038  1.00  0.00     0.015 A 
HETATM   12  C18 UNL     1      -3.353  -3.142  -0.010  1.00  0.00     0.044 A 
HETATM   13  C19 UNL     1      -2.001  -2.792  -0.023  1.00  0.00     0.127 A 
HETATM   14  F1  UNL     1      -1.069  -3.775  -0.108  1.00  0.00    -0.205 F 
BRANCH  10  15
HETATM   15  C11 UNL     1      -5.028   0.258   0.124  1.00  0.00    -0.026 A 
HETATM   16  C12 UNL     1      -4.868   1.386   0.952  1.00  0.00     0.012 A 
HETATM   17  C13 UNL     1      -5.856   2.375   0.998  1.00  0.00     0.001 A 
HETATM   18  C14 UNL     1      -7.010   2.251   0.222  1.00  0.00     0.000 A 
HETATM   19  C15 UNL     1      -7.179   1.137  -0.604  1.00  0.00     0.001 A 
HETATM   20  C16 UNL     1      -6.196   0.144  -0.654  1.00  0.00     0.012 A 
ENDBRANCH  10  15
ENDBRANCH   4   8
BRANCH   1  21
HETATM   21  C3  UNL     1       3.977   0.105  -0.025  1.00  0.00     0.115 C 
HETATM   22  N1  UNL     1       4.846  -0.864   0.123  1.00  0.00    -0.278 NA
HETATM   23  C2  UNL     1       6.304  -0.846   0.235  1.00  0.00     0.252 C 
HETATM   24  C1  UNL     1       6.941   0.033  -0.790  1.00  0.00     0.237 C 
HETATM   25  O1  UNL     1       7.653  -0.466  -1.701  1.00  0.00    -0.272 OA
HETATM   26  N2  UNL     1       6.761   1.444  -0.716  1.00  0.00    -0.353 N 
HETATM   27  C23 UNL     1       5.737   2.015   0.151  1.00  0.00     0.208 C 
HETATM   28  H16 UNL     1       7.317   2.070  -1.341  1.00  0.00     0.162 HD
HETATM   29  C22 UNL     1       4.344   1.566  -0.306  1.00  0.00     0.303 C 
HETATM   30  F3  UNL     1       4.244   1.794  -1.669  1.00  0.00    -0.197 F 
HETATM   31  F4  UNL     1       3.423   2.379   0.334  1.00  0.00    -0.197 F 
ENDBRANCH   1  21
TORSDOF 3
