REMARK  6 active torsions:
REMARK  status: ('A' for Active; 'I' for Inactive)
REMARK    1  A    between atoms: O1_2  and  C2_3 
REMARK    2  A    between atoms: C2_3  and  C3_4 
REMARK    3  A    between atoms: C3_4  and  N1_5 
REMARK    4  A    between atoms: N1_5  and  C4_6 
REMARK    5  A    between atoms: N1_5  and  C13_16 
REMARK    6  A    between atoms: C4_6  and  C5_7 
ROOT
HETATM    1  N1  UNL     1       0.681   0.907   0.545  1.00  0.00     0.108 N 
ENDROOT
BRANCH   1   2
HETATM    2  C3  UNL     1      -0.152   2.128   0.724  1.00  0.00     0.300 C 
BRANCH   2   3
HETATM    3  C2  UNL     1      -1.160   2.301  -0.417  1.00  0.00     0.197 C 
BRANCH   3   4
HETATM    4  O1  UNL     1      -1.759   3.583  -0.349  1.00  0.00    -0.394 OA
HETATM    5  C1  UNL     1      -2.985   3.519   0.344  1.00  0.00     0.201 C 
ENDBRANCH   3   4
ENDBRANCH   2   3
ENDBRANCH   1   2
BRANCH   1   6
HETATM    6  C4  UNL     1       1.977   1.042   1.250  1.00  0.00     0.313 C 
BRANCH   6   7
HETATM    7  C5  UNL     1       3.011   0.143   0.625  1.00  0.00    -0.014 A 
HETATM    8  C6  UNL     1       3.688  -0.829   1.395  1.00  0.00     0.012 A 
HETATM    9  C7  UNL     1       4.643  -1.666   0.800  1.00  0.00     0.030 A 
HETATM   10  C8  UNL     1       4.898  -1.498  -0.560  1.00  0.00     0.038 A 
HETATM   11  C9  UNL     1       5.784  -2.191  -1.358  1.00  0.00     0.031 A 
HETATM   12  N2  UNL     1       4.253  -0.567  -1.274  1.00  0.00    -0.332 N 
HETATM   13  C10 UNL     1       5.655  -1.638  -2.625  1.00  0.00     0.020 A 
HETATM   14  C11 UNL     1       4.698  -0.638  -2.542  1.00  0.00     0.096 A 
HETATM   15  C12 UNL     1       3.322   0.265  -0.743  1.00  0.00     0.105 A 
ENDBRANCH   6   7
ENDBRANCH   1   6
BRANCH   1  16
HETATM   16  C13 UNL     1       0.013  -0.397   0.857  1.00  0.00     0.315 C 
HETATM   17  C14 UNL     1      -0.462  -1.079  -0.442  1.00  0.00     0.050 C 
HETATM   18  C15 UNL     1      -1.560  -2.117  -0.210  1.00  0.00     0.043 C 
HETATM   19  C16 UNL     1      -2.896  -1.437  -0.223  1.00  0.00    -0.031 A 
HETATM   20  C17 UNL     1      -3.796  -1.715  -1.269  1.00  0.00     0.009 A 
HETATM   21  C21 UNL     1      -3.248  -0.478   0.759  1.00  0.00     0.041 A 
HETATM   22  C18 UNL     1      -5.037  -1.078  -1.330  1.00  0.00     0.001 A 
HETATM   23  C19 UNL     1      -5.395  -0.154  -0.352  1.00  0.00     0.002 A 
HETATM   24  C20 UNL     1      -4.509   0.143   0.684  1.00  0.00     0.030 A 
HETATM   25  N3  UNL     1      -2.397  -0.140   1.871  1.00  0.00    -0.325 N 
HETATM   26  C22 UNL     1      -0.977  -0.329   2.015  1.00  0.00     0.255 C 
HETATM   27  H25 UNL     1      -2.871   0.282   2.703  1.00  0.00     0.169 HD
HETATM   28  O2  UNL     1      -0.499  -0.328   3.182  1.00  0.00    -0.271 OA
ENDBRANCH   1  16
TORSDOF 6
