REMARK  3 active torsions:
REMARK  status: ('A' for Active; 'I' for Inactive)
REMARK    1  A    between atoms: C3_4  and  O1_5 
REMARK    2  A    between atoms: C6_8  and  C7_9 
REMARK       I    between atoms: C7_9  and  N2_11 
REMARK       I    between atoms: N3_17  and  C13_18 
REMARK    3  A    between atoms: C13_18  and  C14_20 
ROOT
HETATM    1  C7  UNL     1      -1.123  -0.816  -0.531  1.00  0.00     0.256 C 
HETATM    2  O2  UNL     1      -0.388  -1.575  -1.219  1.00  0.00    -0.267 OA
HETATM    3  N2  UNL     1      -1.124   0.602  -0.778  1.00  0.00    -0.337 N 
HETATM    4  C8  UNL     1      -1.540   1.611   0.184  1.00  0.00     0.089 C 
HETATM    5  C9  UNL     1      -1.806   2.860  -0.658  1.00  0.00     0.027 C 
HETATM    6  C10 UNL     1      -1.030   2.657  -1.964  1.00  0.00     0.029 C 
HETATM    7  C11 UNL     1      -0.466   1.226  -1.915  1.00  0.00     0.106 C 
HETATM    8  C12 UNL     1       1.071   1.197  -1.717  1.00  0.00     0.151 C 
HETATM    9  N3  UNL     1       1.453   1.188  -0.288  1.00  0.00    -0.346 N 
HETATM   10  C13 UNL     1       2.231   0.102   0.256  1.00  0.00     0.253 C 
HETATM   11  O3  UNL     1       1.982  -0.317   1.420  1.00  0.00    -0.267 OA
HETATM   12  C20 UNL     1       0.943   2.227   0.620  1.00  0.00     0.128 C 
HETATM   13  C21 UNL     1      -0.422   1.836   1.229  1.00  0.00     0.045 C 
ENDROOT
BRANCH   1  14
HETATM   14  C6  UNL     1      -1.967  -1.405   0.522  1.00  0.00     0.056 A 
HETATM   15  C2  UNL     1      -3.377  -1.412   0.432  1.00  0.00     0.049 A 
HETATM   16  C1  UNL     1      -4.098  -0.850  -0.760  1.00  0.00     0.071 C 
HETATM   17  N1  UNL     1      -4.109  -1.945   1.448  1.00  0.00    -0.229 NA
HETATM   18  C3  UNL     1      -3.530  -2.495   2.549  1.00  0.00     0.162 A 
HETATM   19  C4  UNL     1      -2.139  -2.532   2.660  1.00  0.00     0.059 A 
HETATM   20  C5  UNL     1      -1.358  -1.989   1.640  1.00  0.00     0.023 A 
BRANCH  18  21
HETATM   21  O1  UNL     1      -4.320  -3.026   3.563  1.00  0.00    -0.345 OA
HETATM   22  H4  UNL     1      -5.331  -3.008   3.497  1.00  0.00     0.219 HD
ENDBRANCH  18  21
ENDBRANCH   1  14
BRANCH  10  23
HETATM   23  C14 UNL     1       3.336  -0.525  -0.506  1.00  0.00     0.032 A 
HETATM   24  C15 UNL     1       4.115   0.234  -1.399  1.00  0.00     0.017 A 
HETATM   25  C16 UNL     1       5.163  -0.364  -2.105  1.00  0.00     0.001 A 
HETATM   26  C17 UNL     1       5.451  -1.719  -1.918  1.00  0.00     0.000 A 
HETATM   27  C18 UNL     1       4.692  -2.477  -1.023  1.00  0.00     0.001 A 
HETATM   28  C19 UNL     1       3.642  -1.884  -0.315  1.00  0.00     0.017 A 
ENDBRANCH  10  23
TORSDOF 3
