REMARK  2 active torsions:
REMARK  status: ('A' for Active; 'I' for Inactive)
REMARK    1  A    between atoms: C8_8  and  N1_9 
REMARK       I    between atoms: N1_9  and  C9_10 
REMARK    2  A    between atoms: C9_10  and  C10_12 
ROOT
HETATM    1  C1  UNL     1      -2.371   3.203   2.239  1.00  0.00     0.048 C 
HETATM    2  C2  UNL     1      -2.448   2.037   1.298  1.00  0.00    -0.061 A 
HETATM    3  C3  UNL     1      -3.423   2.007   0.291  1.00  0.00     0.007 A 
HETATM    4  C4  UNL     1      -3.474   0.945  -0.616  1.00  0.00     0.013 A 
HETATM    5  C5  UNL     1      -2.541  -0.100  -0.537  1.00  0.00    -0.017 A 
HETATM    6  C6  UNL     1      -1.543  -0.068   0.475  1.00  0.00    -0.019 A 
HETATM    7  C7  UNL     1      -1.500   1.007   1.375  1.00  0.00     0.017 A 
HETATM    8  C8  UNL     1      -0.511  -1.181   0.567  1.00  0.00     0.152 C 
HETATM    9  C18 UNL     1      -0.998  -2.354  -0.256  1.00  0.00    -0.030 C 
HETATM   10  C19 UNL     1      -1.500  -2.028  -1.579  1.00  0.00     0.022 C 
HETATM   11  C20 UNL     1      -2.569  -1.247  -1.499  1.00  0.00    -0.025 C 
HETATM   12  C21 UNL     1      -3.861  -1.851  -1.848  1.00  0.00     0.012 C 
HETATM   13  C22 UNL     1      -4.200  -3.145  -1.656  1.00  0.00     0.001 C 
HETATM   14  C23 UNL     1      -3.410  -4.326  -1.159  1.00  0.00     0.000 C 
HETATM   15  C24 UNL     1      -2.344  -4.465  -0.328  1.00  0.00     0.001 C 
HETATM   16  C25 UNL     1      -1.505  -3.440   0.346  1.00  0.00     0.009 C 
ENDROOT
BRANCH   8  17
HETATM   17  N1  UNL     1       0.769  -0.700   0.038  1.00  0.00    -0.344 N 
HETATM   18  C9  UNL     1       1.815  -0.202   0.888  1.00  0.00     0.252 C 
HETATM   19  O1  UNL     1       1.833  -0.517   2.109  1.00  0.00    -0.268 OA
HETATM   20  H8  UNL     1       0.870  -0.605  -0.997  1.00  0.00     0.163 HD
BRANCH  18  21
HETATM   21  C10 UNL     1       2.889   0.664   0.348  1.00  0.00     0.032 A 
HETATM   22  C11 UNL     1       2.664   1.475  -0.793  1.00  0.00     0.018 A 
HETATM   23  C12 UNL     1       3.679   2.302  -1.297  1.00  0.00     0.021 A 
HETATM   24  C13 UNL     1       4.907   2.309  -0.644  1.00  0.00     0.015 A 
HETATM   25  S1  UNL     1       6.282   3.193  -1.021  1.00  0.00    -0.101 SA
HETATM   26  C16 UNL     1       5.148   1.536   0.478  1.00  0.00    -0.018 A 
HETATM   27  C14 UNL     1       7.209   2.589   0.258  1.00  0.00     0.051 A 
HETATM   28  C15 UNL     1       6.440   1.687   0.992  1.00  0.00     0.020 A 
HETATM   29  C17 UNL     1       4.147   0.708   0.992  1.00  0.00     0.029 A 
ENDBRANCH  18  21
ENDBRANCH   8  17
TORSDOF 2
