REMARK  2 active torsions:
REMARK  status: ('A' for Active; 'I' for Inactive)
REMARK    1  A    between atoms: C4_4  and  N1_5 
REMARK       I    between atoms: N2_8  and  C7_9 
REMARK    2  A    between atoms: C7_9  and  C8_11 
ROOT
HETATM    1  N1  UNL     1      -1.011   0.596  -0.884  1.00  0.00    -0.345 N 
HETATM    2  C5  UNL     1       0.228   1.388  -0.947  1.00  0.00     0.149 C 
HETATM    3  C6  UNL     1       0.999   1.305   0.372  1.00  0.00     0.147 C 
HETATM    4  N2  UNL     1       1.433  -0.079   0.608  1.00  0.00    -0.337 N 
HETATM    5  C7  UNL     1       2.679  -0.558   0.045  1.00  0.00     0.272 C 
HETATM    6  O1  UNL     1       2.801  -1.766  -0.292  1.00  0.00    -0.266 OA
HETATM    7  C12 UNL     1       0.398  -1.024   1.066  1.00  0.00     0.119 C 
HETATM    8  C13 UNL     1       0.943  -1.982   2.140  1.00  0.00     0.037 C 
HETATM    9  C14 UNL     1      -0.272  -1.665  -0.139  1.00  0.00    -0.009 A 
HETATM   10  C15 UNL     1      -0.245  -3.057  -0.367  1.00  0.00     0.011 A 
HETATM   11  C16 UNL     1      -0.899  -3.609  -1.471  1.00  0.00     0.001 A 
HETATM   12  C17 UNL     1      -1.591  -2.787  -2.360  1.00  0.00     0.002 A 
HETATM   13  C18 UNL     1      -1.623  -1.408  -2.155  1.00  0.00     0.030 A 
HETATM   14  C19 UNL     1      -0.958  -0.835  -1.061  1.00  0.00     0.043 A 
ENDROOT
BRANCH   1  15
HETATM   15  C4  UNL     1      -2.280   1.224  -0.615  1.00  0.00     0.035 A 
HETATM   16  C3  UNL     1      -3.144   0.683   0.353  1.00  0.00     0.039 A 
HETATM   17  C2  UNL     1      -4.384   1.283   0.622  1.00  0.00    -0.021 A 
HETATM   18  C1  UNL     1      -5.309   0.686   1.642  1.00  0.00     0.051 C 
HETATM   19  C22 UNL     1      -4.776   2.416  -0.111  1.00  0.00     0.122 A 
HETATM   20  C21 UNL     1      -3.926   2.949  -1.084  1.00  0.00     0.045 A 
HETATM   21  F1  UNL     1      -5.982   2.998   0.110  1.00  0.00    -0.206 F 
HETATM   22  C20 UNL     1      -2.686   2.358  -1.337  1.00  0.00     0.033 A 
ENDBRANCH   1  15
BRANCH   5  23
HETATM   23  C8  UNL     1       3.846   0.323  -0.116  1.00  0.00     0.121 A 
HETATM   24  C9  UNL     1       4.011   1.290  -1.085  1.00  0.00     0.058 A 
HETATM   25  C10 UNL     1       5.295   1.763  -0.883  1.00  0.00     0.141 A 
HETATM   26  N3  UNL     1       5.868   1.102   0.143  1.00  0.00    -0.185 NA
HETATM   27  N4  UNL     1       4.983   0.232   0.603  1.00  0.00    -0.269 N 
HETATM   28  C11 UNL     1       5.257  -0.707   1.684  1.00  0.00     0.180 C 
ENDBRANCH   5  23
TORSDOF 2
