REMARK  3 active torsions:
REMARK  status: ('A' for Active; 'I' for Inactive)
REMARK       I    between atoms: N2_7  and  C6_8 
REMARK    1  A    between atoms: C6_8  and  C7_10 
REMARK    2  A    between atoms: C7_10  and  C8_11 
REMARK    3  A    between atoms: C8_11  and  C9_12 
ROOT
HETATM    1  C1  UNL     1      -2.040   2.048  -0.011  1.00  0.00     0.311 C 
HETATM    2  N1  UNL     1      -1.889   0.609   0.263  1.00  0.00     0.102 N 
HETATM    3  C2  UNL     1      -2.642  -0.203  -0.705  1.00  0.00     0.295 C 
HETATM    4  C3  UNL     1      -3.785  -0.453   0.272  1.00  0.00     0.081 C 
HETATM    5  C4  UNL     1      -2.836   0.158   1.298  1.00  0.00     0.243 C 
HETATM    6  C5  UNL     1      -2.160  -0.933   2.163  1.00  0.00     0.162 C 
HETATM    7  N2  UNL     1      -1.132  -1.670   1.394  1.00  0.00    -0.343 N 
HETATM    8  C6  UNL     1       0.251  -1.528   1.766  1.00  0.00     0.220 C 
HETATM    9  O1  UNL     1       0.586  -1.644   2.975  1.00  0.00    -0.273 OA
HETATM   10  C15 UNL     1      -1.499  -2.415   0.174  1.00  0.00     0.206 C 
HETATM   11  C16 UNL     1      -1.870  -1.481  -0.966  1.00  0.00     0.177 C 
HETATM   12  O2  UNL     1      -1.570  -1.778  -2.112  1.00  0.00    -0.294 OA
ENDROOT
BRANCH   8  13
HETATM   13  C7  UNL     1       1.298  -1.156   0.752  1.00  0.00     0.107 C 
BRANCH  13  14
HETATM   14  C8  UNL     1       1.681   0.318   0.901  1.00  0.00     0.047 C 
BRANCH  14  15
HETATM   15  C9  UNL     1       2.618   0.737  -0.200  1.00  0.00    -0.058 A 
HETATM   16  C10 UNL     1       4.003   0.552  -0.060  1.00  0.00     0.009 A 
HETATM   17  C11 UNL     1       4.869   0.913  -1.097  1.00  0.00     0.024 A 
HETATM   18  C12 UNL     1       4.358   1.452  -2.283  1.00  0.00     0.034 A 
HETATM   19 CL1  UNL     1       5.447   1.903  -3.582  1.00  0.00    -0.084 Cl
HETATM   20  C13 UNL     1       2.978   1.626  -2.433  1.00  0.00     0.024 A 
HETATM   21  C14 UNL     1       2.110   1.265  -1.399  1.00  0.00     0.009 A 
ENDBRANCH  14  15
ENDBRANCH  13  14
ENDBRANCH   8  13
TORSDOF 3
