REMARK  4 active torsions:
REMARK  status: ('A' for Active; 'I' for Inactive)
REMARK    1  A    between atoms: N1_2  and  C2_3 
REMARK       I    between atoms: N1_2  and  C11_14 
REMARK    2  A    between atoms: C2_3  and  C3_4 
REMARK    3  A    between atoms: C6_7  and  N2_8 
REMARK    4  A    between atoms: C11_14  and  C12_16 
ROOT
HETATM    1  C1  UNL     1       1.785  -2.898   3.246  1.00  0.00     0.152 C 
HETATM    2  N1  UNL     1       1.045  -1.871   2.503  1.00  0.00    -0.352 N 
HETATM    3  C11 UNL     1      -0.109  -2.281   1.729  1.00  0.00     0.227 C 
HETATM    4  O1  UNL     1      -0.511  -3.475   1.811  1.00  0.00    -0.273 OA
ENDROOT
BRANCH   3   5
HETATM    5  C12 UNL     1      -0.825  -1.357   0.761  1.00  0.00     0.126 C 
HETATM    6  C13 UNL     1      -2.360  -1.411   0.998  1.00  0.00     0.289 C 
HETATM    7  N3  UNL     1      -3.059  -0.162   0.596  1.00  0.00     0.099 N 
HETATM    8  C14 UNL     1      -3.023   0.853   1.684  1.00  0.00     0.273 C 
HETATM    9  C18 UNL     1      -2.662   0.395  -0.722  1.00  0.00     0.274 C 
HETATM   10  C15 UNL     1      -3.183   2.303   1.186  1.00  0.00     0.030 C 
HETATM   11  C16 UNL     1      -4.135   2.376  -0.008  1.00  0.00     0.004 C 
HETATM   12  C17 UNL     1      -3.712   1.442  -1.159  1.00  0.00     0.042 C 
HETATM   13  C19 UNL     1      -2.457  -0.693  -1.757  1.00  0.00     0.065 A 
HETATM   14  C20 UNL     1      -3.226  -0.967  -2.877  1.00  0.00     0.050 A 
HETATM   15  N5  UNL     1      -1.476  -1.617  -1.681  1.00  0.00    -0.271 N 
HETATM   16  C21 UNL     1      -2.628  -2.072  -3.447  1.00  0.00     0.141 A 
HETATM   17  N4  UNL     1      -1.565  -2.444  -2.710  1.00  0.00    -0.185 NA
HETATM   18  C22 UNL     1      -0.391  -1.693  -0.697  1.00  0.00     0.167 C 
ENDBRANCH   3   5
BRANCH   2  19
HETATM   19  C2  UNL     1       1.462  -0.462   2.614  1.00  0.00     0.167 C 
BRANCH  19  20
HETATM   20  C3  UNL     1       2.097   0.028   1.334  1.00  0.00    -0.002 A 
HETATM   21  C4  UNL     1       3.083  -0.739   0.695  1.00  0.00     0.014 A 
HETATM   22  C5  UNL     1       3.684  -0.287  -0.483  1.00  0.00     0.030 A 
HETATM   23  C6  UNL     1       3.323   0.953  -1.046  1.00  0.00     0.032 A 
HETATM   24  C9  UNL     1       2.354   1.732  -0.384  1.00  0.00     0.072 A 
HETATM   25  C10 UNL     1       1.752   1.281   0.793  1.00  0.00     0.126 A 
HETATM   26  F1  UNL     1       0.824   2.066   1.397  1.00  0.00    -0.205 F 
BRANCH  23  27
HETATM   27  N2  UNL     1       3.942   1.419  -2.270  1.00  0.00    -0.389 N 
HETATM   28  C7  UNL     1       3.994   2.851  -2.581  1.00  0.00     0.149 C 
HETATM   29  C8  UNL     1       4.504   0.463  -3.231  1.00  0.00     0.149 C 
ENDBRANCH  23  27
ENDBRANCH  19  20
ENDBRANCH   2  19
TORSDOF 4
