REMARK  2 active torsions:
REMARK  status: ('A' for Active; 'I' for Inactive)
REMARK       I    between atoms: C1_2  and  N1_3 
REMARK    1  A    between atoms: C1_2  and  C12_15 
REMARK    2  A    between atoms: N1_3  and  C2_4 
ROOT
HETATM    1  C12 UNL     1      -0.970  -0.099  -1.978  1.00  0.00     0.066 A 
HETATM    2  C13 UNL     1      -1.537  -0.000  -3.254  1.00  0.00     0.020 A 
HETATM    3  C14 UNL     1      -2.902   0.200  -3.403  1.00  0.00     0.002 A 
HETATM    4  C15 UNL     1      -3.716   0.327  -2.282  1.00  0.00     0.015 A 
HETATM    5  C16 UNL     1      -3.187   0.245  -0.976  1.00  0.00     0.009 A 
HETATM    6  C17 UNL     1      -1.790  -0.033  -0.825  1.00  0.00     0.095 A 
HETATM    7  O2  UNL     1      -1.154  -0.299   0.403  1.00  0.00    -0.349 OA
HETATM    8  C18 UNL     1      -1.741  -0.499   1.683  1.00  0.00     0.180 C 
HETATM    9  C19 UNL     1      -3.033  -1.302   1.585  1.00  0.00     0.066 C 
HETATM   10  C20 UNL     1      -4.149  -0.342   1.318  1.00  0.00    -0.045 A 
HETATM   11  C21 UNL     1      -5.133  -0.145   2.304  1.00  0.00     0.008 A 
HETATM   12  C22 UNL     1      -6.099   0.849   2.154  1.00  0.00     0.001 A 
HETATM   13  C23 UNL     1      -6.081   1.672   1.032  1.00  0.00     0.001 A 
HETATM   14  C24 UNL     1      -5.111   1.488   0.045  1.00  0.00     0.013 A 
HETATM   15  C25 UNL     1      -4.141   0.468   0.158  1.00  0.00    -0.017 A 
ENDROOT
BRANCH   1  16
HETATM   16  C1  UNL     1       0.489  -0.319  -1.871  1.00  0.00     0.259 C 
HETATM   17  O1  UNL     1       1.033  -1.181  -2.614  1.00  0.00    -0.267 OA
HETATM   18  N1  UNL     1       1.277   0.441  -0.937  1.00  0.00    -0.323 N 
HETATM   19  H1  UNL     1       0.789   1.109  -0.300  1.00  0.00     0.169 HD
BRANCH  18  20
HETATM   20  C2  UNL     1       2.693   0.271  -0.754  1.00  0.00     0.035 A 
HETATM   21  C3  UNL     1       3.556   0.091  -1.849  1.00  0.00     0.030 A 
HETATM   22  C4  UNL     1       4.933  -0.049  -1.651  1.00  0.00     0.014 A 
HETATM   23  C5  UNL     1       5.469   0.004  -0.357  1.00  0.00    -0.026 A 
HETATM   24  C6  UNL     1       6.849  -0.136  -0.147  1.00  0.00     0.015 A 
HETATM   25  C10 UNL     1       4.609   0.208   0.749  1.00  0.00    -0.021 A 
HETATM   26  C7  UNL     1       7.372  -0.075   1.148  1.00  0.00     0.043 A 
HETATM   27  C8  UNL     1       6.524   0.127   2.241  1.00  0.00     0.117 A 
HETATM   28  F1  UNL     1       7.038   0.186   3.494  1.00  0.00    -0.206 F 
HETATM   29  C9  UNL     1       5.146   0.269   2.045  1.00  0.00     0.054 A 
HETATM   30  C11 UNL     1       3.229   0.348   0.540  1.00  0.00     0.042 A 
ENDBRANCH  18  20
ENDBRANCH   1  16
TORSDOF 2
