REMARK  3 active torsions:
REMARK  status: ('A' for Active; 'I' for Inactive)
REMARK    1  A    between atoms: C4_4  and  N1_5 
REMARK    2  A    between atoms: C16_19  and  C17_20 
REMARK       I    between atoms: C17_20  and  N3_22 
REMARK    3  A    between atoms: N3_22  and  C18_23 
ROOT
HETATM    1  C1  UNL     1      -0.952   4.365   0.596  1.00  0.00     0.048 C 
HETATM    2  C2  UNL     1      -0.178   3.196   0.062  1.00  0.00    -0.060 A 
HETATM    3  C3  UNL     1      -0.702   1.901   0.156  1.00  0.00     0.037 A 
HETATM    4  C4  UNL     1       0.024   0.797  -0.315  1.00  0.00     0.046 A 
HETATM    5  C16 UNL     1       1.324   0.984  -0.842  1.00  0.00     0.058 A 
HETATM    6  C22 UNL     1       1.845   2.288  -0.921  1.00  0.00     0.020 A 
HETATM    7  C23 UNL     1       1.103   3.382  -0.470  1.00  0.00     0.008 A 
ENDROOT
BRANCH   4   8
HETATM    8  N1  UNL     1      -0.539  -0.519  -0.182  1.00  0.00    -0.373 N 
HETATM    9  C5  UNL     1      -0.462  -1.205   1.105  1.00  0.00     0.164 C 
HETATM   10  C6  UNL     1      -1.605  -0.781   1.983  1.00  0.00    -0.007 A 
HETATM   11  C7  UNL     1      -1.347  -0.206   3.239  1.00  0.00     0.011 A 
HETATM   12  C11 UNL     1      -2.941  -0.993   1.579  1.00  0.00     0.078 A 
HETATM   13  C8  UNL     1      -2.402   0.139   4.088  1.00  0.00     0.001 A 
HETATM   14  C9  UNL     1      -3.720  -0.097   3.696  1.00  0.00     0.003 A 
HETATM   15  C10 UNL     1      -3.988  -0.667   2.449  1.00  0.00     0.037 A 
HETATM   16  O1  UNL     1      -3.260  -1.539   0.329  1.00  0.00    -0.334 OA
HETATM   17  C12 UNL     1      -2.867  -0.961  -0.921  1.00  0.00     0.136 A 
HETATM   18  C13 UNL     1      -3.502   0.400  -1.185  1.00  0.00     0.311 A 
HETATM   19  C14 UNL     1      -3.774  -1.442  -2.046  1.00  0.00     0.311 A 
HETATM   20  C15 UNL     1      -1.367  -1.081  -1.251  1.00  0.00     0.165 C 
HETATM   21  N2  UNL     1      -4.367  -0.119  -2.245  1.00  0.00     0.089 N 
HETATM   22  H13 UNL     1      -5.352  -0.141  -1.888  1.00  0.00     0.316 HD
ENDBRANCH   4   8
BRANCH   5  23
HETATM   23  C17 UNL     1       2.153  -0.161  -1.296  1.00  0.00     0.254 C 
HETATM   24  O2  UNL     1       1.605  -1.149  -1.856  1.00  0.00    -0.268 OA
HETATM   25  N3  UNL     1       3.575  -0.158  -1.099  1.00  0.00    -0.352 N 
HETATM   26  H18 UNL     1       4.012   0.627  -0.565  1.00  0.00     0.163 HD
BRANCH  25  27
HETATM   27  C18 UNL     1       4.415  -1.247  -1.606  1.00  0.00     0.084 A 
HETATM   28  C19 UNL     1       4.308  -2.505  -0.749  1.00  0.00     0.025 A 
HETATM   29  C20 UNL     1       5.776  -2.367  -0.366  1.00  0.00     0.004 A 
HETATM   30  C21 UNL     1       5.887  -1.109  -1.216  1.00  0.00     0.025 A 
ENDBRANCH  25  27
ENDBRANCH   5  23
TORSDOF 3
