REMARK  3 active torsions:
REMARK  status: ('A' for Active; 'I' for Inactive)
REMARK    1  A    between atoms: C4_4  and  C5_5 
REMARK       I    between atoms: C5_5  and  N1_7 
REMARK    2  A    between atoms: N1_7  and  C6_8 
REMARK    3  A    between atoms: C11_13  and  N2_14 
ROOT
HETATM    1  C6  UNL     1      -1.011  -1.256   1.698  1.00  0.00     0.062 A 
HETATM    2  C7  UNL     1      -0.867  -2.043   2.855  1.00  0.00     0.032 A 
HETATM    3  C8  UNL     1      -1.990  -2.462   3.572  1.00  0.00     0.002 A 
HETATM    4  C9  UNL     1      -3.267  -2.085   3.155  1.00  0.00     0.002 A 
HETATM    5  C10 UNL     1      -3.425  -1.292   2.017  1.00  0.00     0.032 A 
HETATM    6  C11 UNL     1      -2.306  -0.876   1.278  1.00  0.00     0.062 A 
ENDROOT
BRANCH   1   7
HETATM    7  N1  UNL     1       0.148  -0.751   1.016  1.00  0.00    -0.321 N 
HETATM    8  C5  UNL     1       1.298  -1.557   0.705  1.00  0.00     0.256 C 
HETATM    9  O1  UNL     1       1.301  -2.786   0.992  1.00  0.00    -0.267 OA
HETATM   10  H5  UNL     1       0.136   0.254   0.737  1.00  0.00     0.169 HD
BRANCH   8  11
HETATM   11  C4  UNL     1       2.490  -0.970   0.049  1.00  0.00     0.033 A 
HETATM   12  C3  UNL     1       2.371   0.121  -0.846  1.00  0.00     0.024 A 
HETATM   13  C2  UNL     1       3.510   0.676  -1.466  1.00  0.00    -0.047 A 
HETATM   14  C1  UNL     1       3.377   1.835  -2.412  1.00  0.00     0.049 C 
HETATM   15  C23 UNL     1       4.760   0.111  -1.169  1.00  0.00     0.022 A 
HETATM   16  C22 UNL     1       4.883  -0.956  -0.313  1.00  0.00    -0.042 A 
HETATM   17  C24 UNL     1       6.083   0.469  -1.639  1.00  0.00     0.161 A 
HETATM   18  C21 UNL     1       3.765  -1.517   0.304  1.00  0.00     0.025 A 
HETATM   19  C26 UNL     1       6.304  -1.393  -0.145  1.00  0.00     0.047 A 
HETATM   20  C25 UNL     1       7.114  -0.430  -1.042  1.00  0.00     0.088 A 
HETATM   21  O3  UNL     1       6.340   1.408  -2.437  1.00  0.00    -0.292 OA
ENDBRANCH   8  11
ENDBRANCH   1   7
BRANCH   6  22
HETATM   22  N2  UNL     1      -2.505  -0.089   0.090  1.00  0.00    -0.343 N 
HETATM   23  C12 UNL     1      -2.004  -0.577  -1.204  1.00  0.00     0.149 C 
HETATM   24  C13 UNL     1      -2.937  -0.232  -2.366  1.00  0.00     0.143 C 
HETATM   25  N3  UNL     1      -4.328  -0.505  -2.016  1.00  0.00    -0.355 N 
HETATM   26  C14 UNL     1      -5.085   0.385  -1.183  1.00  0.00     0.253 C 
HETATM   27  H14 UNL     1      -4.830  -1.269  -2.521  1.00  0.00     0.162 HD
HETATM   28  O2  UNL     1      -6.341   0.291  -1.169  1.00  0.00    -0.268 OA
HETATM   29  C15 UNL     1      -4.419   1.421  -0.360  1.00  0.00     0.058 A 
HETATM   30  C16 UNL     1      -5.069   2.645  -0.123  1.00  0.00     0.019 A 
HETATM   31  C20 UNL     1      -3.147   1.192   0.212  1.00  0.00     0.050 A 
HETATM   32  C17 UNL     1      -4.456   3.635   0.650  1.00  0.00     0.001 A 
HETATM   33  C18 UNL     1      -3.196   3.408   1.206  1.00  0.00     0.002 A 
HETATM   34  C19 UNL     1      -2.549   2.189   0.997  1.00  0.00     0.031 A 
ENDBRANCH   6  22
TORSDOF 3
