REMARK  6 active torsions:
REMARK  status: ('A' for Active; 'I' for Inactive)
REMARK       I    between atoms: C1_2  and  N1_3 
REMARK    1  A    between atoms: C1_2  and  C22_27 
REMARK       I    between atoms: N1_3  and  C2_4 
REMARK    2  A    between atoms: C2_4  and  C3_6 
REMARK    3  A    between atoms: C24_29  and  C45_50 
REMARK    4  A    between atoms: C25_30  and  C28_33 
REMARK    5  A    between atoms: C33_38  and  C34_39 
REMARK    6  A    between atoms: C39_44  and  C40_45 
ROOT
HETATM    1  O1  UNL     1      -1.028   1.695  -1.263  1.00  0.00    -0.267 OA
HETATM    2  C1  UNL     1      -0.868   0.594  -0.669  1.00  0.00     0.258 C 
HETATM    3  N1  UNL     1       0.454   0.073  -0.434  1.00  0.00    -0.288 N 
HETATM    4  C2  UNL     1       1.614   0.684  -1.019  1.00  0.00     0.275 C 
HETATM    5  O2  UNL     1       1.534   1.146  -2.192  1.00  0.00    -0.266 OA
HETATM    6  H1  UNL     1       0.573  -0.767   0.189  1.00  0.00     0.172 HD
ENDROOT
BRANCH   2   7
HETATM    7  C22 UNL     1      -2.049  -0.126  -0.168  1.00  0.00     0.033 A 
HETATM    8  C23 UNL     1      -3.116  -0.402  -1.033  1.00  0.00     0.030 A 
HETATM    9  C24 UNL     1      -4.270  -1.045  -0.563  1.00  0.00    -0.013 A 
HETATM   10  C25 UNL     1      -4.370  -1.384   0.802  1.00  0.00    -0.014 A 
HETATM   11  C26 UNL     1      -3.278  -1.145   1.650  1.00  0.00     0.014 A 
HETATM   12  C27 UNL     1      -2.123  -0.524   1.167  1.00  0.00     0.018 A 
BRANCH   9  13
HETATM   13  C45 UNL     1      -5.317  -1.427  -1.534  1.00  0.00    -0.014 A 
HETATM   14  C40 UNL     1      -6.588  -0.813  -1.537  1.00  0.00    -0.014 A 
HETATM   15  C41 UNL     1      -7.526  -1.186  -2.514  1.00  0.00     0.013 A 
HETATM   16  C42 UNL     1      -7.213  -2.165  -3.464  1.00  0.00     0.001 A 
HETATM   17  C43 UNL     1      -5.954  -2.760  -3.465  1.00  0.00     0.001 A 
HETATM   18  C44 UNL     1      -5.008  -2.397  -2.504  1.00  0.00     0.013 A 
BRANCH  14  19
HETATM   19  C39 UNL     1      -6.931   0.256  -0.570  1.00  0.00    -0.014 A 
HETATM   20  C34 UNL     1      -7.016  -0.002   0.816  1.00  0.00    -0.014 A 
HETATM   21  C35 UNL     1      -7.368   1.038   1.691  1.00  0.00     0.013 A 
HETATM   22  C36 UNL     1      -7.630   2.320   1.203  1.00  0.00     0.001 A 
HETATM   23  C37 UNL     1      -7.558   2.573  -0.168  1.00  0.00     0.001 A 
HETATM   24  C38 UNL     1      -7.216   1.544  -1.053  1.00  0.00     0.013 A 
BRANCH  20  25
HETATM   25  C33 UNL     1      -6.838  -1.363   1.372  1.00  0.00    -0.014 A 
HETATM   26  C28 UNL     1      -5.586  -2.022   1.360  1.00  0.00    -0.014 A 
HETATM   27  C29 UNL     1      -5.471  -3.291   1.961  1.00  0.00     0.013 A 
HETATM   28  C30 UNL     1      -6.575  -3.897   2.561  1.00  0.00     0.001 A 
HETATM   29  C31 UNL     1      -7.808  -3.249   2.568  1.00  0.00     0.001 A 
HETATM   30  C32 UNL     1      -7.942  -1.990   1.978  1.00  0.00     0.013 A 
ENDBRANCH  20  25
ENDBRANCH  14  19
ENDBRANCH   9  13
ENDBRANCH   2   7
BRANCH   4  31
HETATM   31  C3  UNL     1       2.880   0.843  -0.251  1.00  0.00     0.104 A 
HETATM   32  C4  UNL     1       3.987   1.439  -0.860  1.00  0.00     0.048 A 
HETATM   33  C5  UNL     1       5.145   1.710  -0.122  1.00  0.00    -0.011 A 
HETATM   34  C6  UNL     1       5.186   1.388   1.256  1.00  0.00     0.021 A 
HETATM   35  C21 UNL     1       6.300   2.276  -0.862  1.00  0.00    -0.014 A 
HETATM   36  C7  UNL     1       4.068   0.734   1.816  1.00  0.00     0.253 A 
HETATM   37  C8  UNL     1       6.319   1.864   2.164  1.00  0.00     0.050 C 
HETATM   38  O3  UNL     1       4.072   0.378   3.025  1.00  0.00    -0.268 OA
HETATM   39  N2  UNL     1       2.961   0.483   1.059  1.00  0.00    -0.319 N 
HETATM   40  H3  UNL     1       2.153   0.012   1.527  1.00  0.00     0.169 HD
HETATM   41  C9  UNL     1       7.746   1.417   1.784  1.00  0.00     0.044 C 
HETATM   42  C10 UNL     1       7.795   0.150   0.964  1.00  0.00    -0.047 A 
HETATM   43  C11 UNL     1       7.977  -1.096   1.594  1.00  0.00     0.008 A 
HETATM   44  C15 UNL     1       7.668   0.205  -0.442  1.00  0.00    -0.019 A 
HETATM   45  C12 UNL     1       8.055  -2.264   0.833  1.00  0.00     0.001 A 
HETATM   46  C13 UNL     1       7.960  -2.200  -0.558  1.00  0.00     0.001 A 
HETATM   47  C14 UNL     1       7.760  -0.970  -1.196  1.00  0.00     0.013 A 
HETATM   48  C16 UNL     1       7.455   1.499  -1.125  1.00  0.00    -0.014 A 
HETATM   49  C17 UNL     1       8.442   1.996  -1.994  1.00  0.00     0.013 A 
HETATM   50  C18 UNL     1       8.284   3.249  -2.596  1.00  0.00     0.001 A 
HETATM   51  C19 UNL     1       7.149   4.019  -2.330  1.00  0.00     0.001 A 
HETATM   52  C20 UNL     1       6.161   3.532  -1.475  1.00  0.00     0.013 A 
ENDBRANCH   4  31
TORSDOF 6
