REMARK  3 active torsions:
REMARK  status: ('A' for Active; 'I' for Inactive)
REMARK    1  A    between atoms: N1_1  and  C1_2 
REMARK    2  A    between atoms: C4_5  and  C5_6 
REMARK       I    between atoms: C5_6  and  N2_8 
REMARK       I    between atoms: N2_8  and  C6_9 
REMARK    3  A    between atoms: C6_9  and  C7_11 
ROOT
HETATM    1  C7  UNL     1       0.571   0.691  -0.583  1.00  0.00     0.033 A 
HETATM    2  C8  UNL     1       0.346  -0.643  -0.204  1.00  0.00     0.018 A 
HETATM    3  C9  UNL     1      -0.867  -1.269  -0.496  1.00  0.00     0.014 A 
HETATM    4  C10 UNL     1      -1.878  -0.575  -1.173  1.00  0.00    -0.019 A 
HETATM    5  C11 UNL     1      -1.659   0.758  -1.584  1.00  0.00    -0.046 A 
HETATM    6  C12 UNL     1      -0.443   1.386  -1.265  1.00  0.00     0.025 A 
HETATM    7  C13 UNL     1      -2.703   1.508  -2.385  1.00  0.00     0.044 C 
HETATM    8  C14 UNL     1      -3.893   2.068  -1.568  1.00  0.00     0.044 C 
HETATM    9  C15 UNL     1      -3.939   1.676  -0.103  1.00  0.00    -0.047 A 
HETATM   10  C16 UNL     1      -3.746   2.666   0.878  1.00  0.00     0.008 A 
HETATM   11  C17 UNL     1      -3.843   2.350   2.235  1.00  0.00     0.001 A 
HETATM   12  C18 UNL     1      -4.141   1.046   2.630  1.00  0.00     0.001 A 
HETATM   13  C19 UNL     1      -4.330   0.050   1.671  1.00  0.00     0.013 A 
HETATM   14  C20 UNL     1      -4.227   0.350   0.303  1.00  0.00    -0.019 A 
HETATM   15  C21 UNL     1      -4.335  -0.756  -0.675  1.00  0.00    -0.014 A 
HETATM   16  C22 UNL     1      -5.569  -1.399  -0.859  1.00  0.00     0.013 A 
HETATM   17  C23 UNL     1      -5.673  -2.486  -1.730  1.00  0.00     0.001 A 
HETATM   18  C24 UNL     1      -4.545  -2.950  -2.410  1.00  0.00     0.001 A 
HETATM   19  C25 UNL     1      -3.308  -2.326  -2.226  1.00  0.00     0.013 A 
HETATM   20  C26 UNL     1      -3.194  -1.224  -1.365  1.00  0.00    -0.014 A 
ENDROOT
BRANCH   1  21
HETATM   21  C6  UNL     1       1.846   1.372  -0.253  1.00  0.00     0.258 C 
HETATM   22  N2  UNL     1       3.056   0.617  -0.060  1.00  0.00    -0.289 N 
HETATM   23  C5  UNL     1       4.266   1.169   0.494  1.00  0.00     0.258 C 
HETATM   24  H5  UNL     1       3.080  -0.362  -0.420  1.00  0.00     0.172 HD
HETATM   25  O1  UNL     1       4.336   2.402   0.751  1.00  0.00    -0.267 OA
HETATM   26  O2  UNL     1       1.866   2.630  -0.164  1.00  0.00    -0.267 OA
BRANCH  23  27
HETATM   27  C4  UNL     1       5.448   0.311   0.754  1.00  0.00     0.032 A 
HETATM   28  C3  UNL     1       5.308  -1.066   1.007  1.00  0.00     0.019 A 
HETATM   29  C2  UNL     1       6.433  -1.861   1.246  1.00  0.00     0.030 A 
HETATM   30  C1  UNL     1       7.714  -1.295   1.243  1.00  0.00     0.025 A 
HETATM   31  C28 UNL     1       7.860   0.078   1.009  1.00  0.00     0.030 A 
HETATM   32  C27 UNL     1       6.737   0.876   0.770  1.00  0.00     0.019 A 
BRANCH  30  33
HETATM   33  N1  UNL     1       8.864  -2.111   1.482  1.00  0.00    -0.399 N 
HETATM   34  H1  UNL     1       9.825  -1.703   1.459  1.00  0.00     0.156 HD
HETATM   35  H2  UNL     1       8.764  -3.134   1.670  1.00  0.00     0.156 HD
ENDBRANCH  30  33
ENDBRANCH  23  27
ENDBRANCH   1  21
TORSDOF 3
