REMARK  6 active torsions:
REMARK  status: ('A' for Active; 'I' for Inactive)
REMARK       I    between atoms: C1_2  and  N1_3 
REMARK    1  A    between atoms: C1_2  and  C22_29 
REMARK       I    between atoms: N1_3  and  C2_4 
REMARK    2  A    between atoms: C2_4  and  C3_6 
REMARK    3  A    between atoms: C24_31  and  C45_52 
REMARK    4  A    between atoms: C25_32  and  C28_35 
REMARK    5  A    between atoms: C33_40  and  C34_41 
REMARK    6  A    between atoms: C39_46  and  C40_47 
ROOT
HETATM    1  O1  UNL     1      -0.525  -1.876  -2.853  1.00  0.00    -0.267 OA
HETATM    2  C1  UNL     1      -0.786  -1.504  -1.676  1.00  0.00     0.258 C 
HETATM    3  N1  UNL     1       0.279  -1.117  -0.788  1.00  0.00    -0.288 N 
HETATM    4  C2  UNL     1       1.640  -0.927  -1.213  1.00  0.00     0.275 C 
HETATM    5  O2  UNL     1       1.938  -1.013  -2.435  1.00  0.00    -0.266 OA
HETATM    6  H1  UNL     1       0.065  -1.076   0.233  1.00  0.00     0.172 HD
ENDROOT
BRANCH   2   7
HETATM    7  C22 UNL     1      -2.191  -1.516  -1.211  1.00  0.00     0.033 A 
HETATM    8  C23 UNL     1      -2.635  -0.611  -0.233  1.00  0.00     0.030 A 
HETATM    9  C24 UNL     1      -3.971  -0.620   0.202  1.00  0.00    -0.013 A 
HETATM   10  C25 UNL     1      -4.871  -1.566  -0.335  1.00  0.00    -0.014 A 
HETATM   11  C26 UNL     1      -4.426  -2.464  -1.314  1.00  0.00     0.014 A 
HETATM   12  C27 UNL     1      -3.104  -2.430  -1.759  1.00  0.00     0.018 A 
BRANCH   9  13
HETATM   13  C45 UNL     1      -4.395   0.344   1.244  1.00  0.00    -0.014 A 
HETATM   14  C40 UNL     1      -5.336   1.364   0.969  1.00  0.00    -0.014 A 
HETATM   15  C41 UNL     1      -5.682   2.276   1.979  1.00  0.00     0.013 A 
HETATM   16  C42 UNL     1      -5.111   2.176   3.248  1.00  0.00     0.001 A 
HETATM   17  C43 UNL     1      -4.180   1.172   3.519  1.00  0.00     0.001 A 
HETATM   18  C44 UNL     1      -3.817   0.265   2.522  1.00  0.00     0.013 A 
BRANCH  14  19
HETATM   19  C39 UNL     1      -5.939   1.522  -0.374  1.00  0.00    -0.014 A 
HETATM   20  C34 UNL     1      -6.842   0.566  -0.895  1.00  0.00    -0.014 A 
HETATM   21  C35 UNL     1      -7.430   0.784  -2.152  1.00  0.00     0.013 A 
HETATM   22  C36 UNL     1      -7.119   1.930  -2.888  1.00  0.00     0.001 A 
HETATM   23  C37 UNL     1      -6.228   2.872  -2.375  1.00  0.00     0.001 A 
HETATM   24  C38 UNL     1      -5.644   2.673  -1.122  1.00  0.00     0.013 A 
BRANCH  20  25
HETATM   25  C33 UNL     1      -7.212  -0.644  -0.129  1.00  0.00    -0.014 A 
HETATM   26  C28 UNL     1      -6.269  -1.662   0.141  1.00  0.00    -0.014 A 
HETATM   27  C29 UNL     1      -6.672  -2.809   0.844  1.00  0.00     0.013 A 
HETATM   28  C30 UNL     1      -7.991  -2.943   1.282  1.00  0.00     0.001 A 
HETATM   29  C31 UNL     1      -8.923  -1.941   1.011  1.00  0.00     0.001 A 
HETATM   30  C32 UNL     1      -8.539  -0.799   0.305  1.00  0.00     0.013 A 
ENDBRANCH  20  25
ENDBRANCH  14  19
ENDBRANCH   9  13
ENDBRANCH   2   7
BRANCH   4  31
HETATM   31  C3  UNL     1       2.715  -0.651  -0.230  1.00  0.00     0.104 A 
HETATM   32  C4  UNL     1       4.022  -1.075  -0.496  1.00  0.00     0.048 A 
HETATM   33  C5  UNL     1       5.040  -0.825   0.427  1.00  0.00    -0.011 A 
HETATM   34  C6  UNL     1       4.752  -0.132   1.622  1.00  0.00     0.030 A 
HETATM   35  C21 UNL     1       6.420  -1.227   0.095  1.00  0.00    -0.014 A 
HETATM   36  C7  UNL     1       3.424   0.290   1.846  1.00  0.00     0.253 A 
HETATM   37  C8  UNL     1       5.841   0.121   2.652  1.00  0.00     0.148 C 
HETATM   38  O3  UNL     1       3.123   0.920   2.896  1.00  0.00    -0.268 OA
HETATM   39  N2  UNL     1       2.453   0.028   0.926  1.00  0.00    -0.319 N 
HETATM   40  H3  UNL     1       1.490   0.387   1.113  1.00  0.00     0.169 HD
HETATM   41  C9  UNL     1       6.982   0.918   2.085  1.00  0.00     0.226 C 
HETATM   42  O4  UNL     1       8.168   0.611   2.380  1.00  0.00    -0.273 OA
HETATM   43  N3  UNL     1       6.733   2.081   1.296  1.00  0.00    -0.326 N 
HETATM   44  C10 UNL     1       6.554   2.105  -0.139  1.00  0.00     0.045 A 
HETATM   45  H6  UNL     1       6.609   2.971   1.830  1.00  0.00     0.169 HD
HETATM   46  C11 UNL     1       6.097   3.307  -0.711  1.00  0.00     0.030 A 
HETATM   47  C15 UNL     1       6.840   1.005  -1.003  1.00  0.00     0.002 A 
HETATM   48  C12 UNL     1       5.918   3.429  -2.089  1.00  0.00     0.002 A 
HETATM   49  C13 UNL     1       6.200   2.354  -2.926  1.00  0.00     0.001 A 
HETATM   50  C14 UNL     1       6.659   1.153  -2.389  1.00  0.00     0.014 A 
HETATM   51  C16 UNL     1       7.305  -0.320  -0.531  1.00  0.00    -0.013 A 
HETATM   52  C17 UNL     1       8.623  -0.721  -0.800  1.00  0.00     0.013 A 
HETATM   53  C18 UNL     1       9.063  -1.996  -0.434  1.00  0.00     0.001 A 
HETATM   54  C19 UNL     1       8.189  -2.887   0.192  1.00  0.00     0.001 A 
HETATM   55  C20 UNL     1       6.871  -2.505   0.457  1.00  0.00     0.013 A 
ENDBRANCH   4  31
TORSDOF 6
