REMARK  1 active torsions:
REMARK  status: ('A' for Active; 'I' for Inactive)
REMARK    1  A    between atoms: C7_7  and  C8_8 
ROOT
HETATM    1  C8  UNL     1      -0.095   0.751  -0.128  1.00  0.00     0.191 C 
HETATM    2  O1  UNL     1      -0.594   1.566  -1.175  1.00  0.00    -0.367 OA
HETATM    3  C9  UNL     1      -1.347   2.649  -0.673  1.00  0.00     0.272 C 
HETATM    4  C10 UNL     1      -2.697   2.225  -0.163  1.00  0.00     0.245 C 
HETATM    5  O2  UNL     1      -3.684   2.973  -0.395  1.00  0.00    -0.271 OA
HETATM    6  N1  UNL     1      -2.883   1.087   0.695  1.00  0.00    -0.325 N 
HETATM    7  C11 UNL     1      -2.358  -0.229   0.430  1.00  0.00     0.044 A 
HETATM    8  C12 UNL     1      -3.203  -1.333   0.628  1.00  0.00     0.030 A 
HETATM    9  C13 UNL     1      -2.757  -2.630   0.377  1.00  0.00     0.002 A 
HETATM   10  C14 UNL     1      -1.457  -2.843  -0.071  1.00  0.00     0.001 A 
HETATM   11  C15 UNL     1      -0.592  -1.763  -0.253  1.00  0.00     0.012 A 
HETATM   12  C16 UNL     1      -1.020  -0.442   0.013  1.00  0.00     0.002 A 
HETATM   13  H11 UNL     1      -3.710   1.139   1.332  1.00  0.00     0.169 HD
ENDROOT
BRANCH   1  14
HETATM   14  C7  UNL     1       1.357   0.377  -0.416  1.00  0.00    -0.019 A 
HETATM   15  C2  UNL     1       2.267   0.052   0.628  1.00  0.00    -0.053 A 
HETATM   16  C1  UNL     1       1.860   0.087   2.078  1.00  0.00     0.049 C 
HETATM   17  C3  UNL     1       3.591  -0.298   0.307  1.00  0.00     0.007 A 
HETATM   18  C4  UNL     1       4.008  -0.365  -1.022  1.00  0.00     0.001 A 
HETATM   19  C5  UNL     1       3.110  -0.086  -2.050  1.00  0.00     0.001 A 
HETATM   20  C6  UNL     1       1.796   0.275  -1.754  1.00  0.00     0.011 A 
ENDBRANCH   1  14
TORSDOF 1
