REMARK  2 active torsions:
REMARK  status: ('A' for Active; 'I' for Inactive)
REMARK    1  A    between atoms: N1_1  and  C1_2 
REMARK       I    between atoms: N2_4  and  C3_5 
REMARK    2  A    between atoms: C3_5  and  C4_7 
ROOT
HETATM    1  C1  UNL     1      -1.263   0.089  -2.136  1.00  0.00     0.327 C 
HETATM    2  C2  UNL     1      -0.547   1.088  -1.220  1.00  0.00     0.177 C 
HETATM    3  N2  UNL     1      -0.807   0.803   0.195  1.00  0.00    -0.309 N 
HETATM    4  C3  UNL     1       0.099   0.010   0.993  1.00  0.00     0.259 C 
HETATM    5  O1  UNL     1      -0.347  -0.641   1.977  1.00  0.00    -0.267 OA
HETATM    6  C14 UNL     1      -2.005   1.316   0.796  1.00  0.00     0.064 A 
HETATM    7  C15 UNL     1      -1.894   2.135   1.932  1.00  0.00     0.032 A 
HETATM    8  C16 UNL     1      -3.034   2.627   2.569  1.00  0.00     0.002 A 
HETATM    9  C17 UNL     1      -4.298   2.298   2.084  1.00  0.00     0.002 A 
HETATM   10  C18 UNL     1      -4.424   1.480   0.959  1.00  0.00     0.032 A 
HETATM   11  C19 UNL     1      -3.286   0.990   0.293  1.00  0.00     0.061 A 
HETATM   12  N3  UNL     1      -3.479   0.115  -0.833  1.00  0.00    -0.323 N 
HETATM   13  C20 UNL     1      -2.758   0.226  -2.067  1.00  0.00     0.257 C 
HETATM   14  O2  UNL     1      -3.408   0.323  -3.143  1.00  0.00    -0.271 OA
HETATM   15  H17 UNL     1      -4.412  -0.353  -0.906  1.00  0.00     0.169 HD
ENDROOT
BRANCH   4  16
HETATM   16  C4  UNL     1       1.553  -0.011   0.721  1.00  0.00     0.043 A 
HETATM   17  C5  UNL     1       2.233   1.217   0.676  1.00  0.00     0.018 A 
HETATM   18  C6  UNL     1       3.610   1.263   0.463  1.00  0.00     0.002 A 
HETATM   19  C7  UNL     1       4.335   0.085   0.296  1.00  0.00     0.012 A 
HETATM   20  C8  UNL     1       3.685  -1.156   0.333  1.00  0.00    -0.025 A 
HETATM   21  C9  UNL     1       4.421  -2.338   0.153  1.00  0.00     0.012 A 
HETATM   22  C13 UNL     1       2.281  -1.217   0.545  1.00  0.00    -0.010 A 
HETATM   23  C10 UNL     1       3.778  -3.576   0.171  1.00  0.00     0.001 A 
HETATM   24  C11 UNL     1       2.399  -3.647   0.363  1.00  0.00     0.001 A 
HETATM   25  C12 UNL     1       1.652  -2.481   0.546  1.00  0.00     0.013 A 
ENDBRANCH   4  16
BRANCH   1  26
HETATM   26  N1  UNL     1      -0.873  -1.297  -1.864  1.00  0.00     0.093 N 
HETATM   27  H1  UNL     1      -1.184  -1.573  -0.905  1.00  0.00     0.314 HD
HETATM   28  H2  UNL     1       0.169  -1.370  -1.899  1.00  0.00     0.314 HD
ENDBRANCH   1  26
TORSDOF 2
