REMARK  4 active torsions:
REMARK  status: ('A' for Active; 'I' for Inactive)
REMARK    1  A    between atoms: C1_2  and  C2_3 
REMARK       I    between atoms: C1_2  and  N2_8 
REMARK    2  A    between atoms: N3_16  and  C12_17 
REMARK    3  A    between atoms: C15_21  and  O3_22 
REMARK    4  A    between atoms: O3_22  and  C16_23 
ROOT
HETATM    1  O1  UNL     1      -2.760  -0.307   2.503  1.00  0.00    -0.267 OA
HETATM    2  C1  UNL     1      -2.838  -0.230   1.247  1.00  0.00     0.257 C 
HETATM    3  N2  UNL     1      -1.648  -0.433   0.447  1.00  0.00    -0.346 N 
HETATM    4  C5  UNL     1      -0.513  -1.165   1.038  1.00  0.00     0.128 C 
HETATM    5  C6  UNL     1       0.494  -0.226   1.739  1.00  0.00     0.045 C 
HETATM    6  C7  UNL     1       0.861   1.041   0.923  1.00  0.00     0.104 C 
HETATM    7  C8  UNL     1      -0.134   2.192   1.157  1.00  0.00     0.028 C 
HETATM    8  C9  UNL     1      -0.873   2.395  -0.169  1.00  0.00     0.029 C 
HETATM    9  C10 UNL     1      -0.488   1.202  -1.045  1.00  0.00     0.120 C 
HETATM   10  C11 UNL     1      -1.519   0.055  -0.942  1.00  0.00     0.152 C 
HETATM   11  N3  UNL     1       0.784   0.761  -0.504  1.00  0.00    -0.203 N 
ENDROOT
BRANCH  11  12
HETATM   12  C12 UNL     1       1.755  -0.010  -1.231  1.00  0.00     0.727 A 
HETATM   13  N4  UNL     1       1.561  -0.291  -2.549  1.00  0.00    -0.075 NA
HETATM   14  C13 UNL     1       2.464  -1.025  -3.248  1.00  0.00     0.141 A 
HETATM   15  C14 UNL     1       3.611  -1.504  -2.617  1.00  0.00     0.078 A 
HETATM   16  C15 UNL     1       3.800  -1.212  -1.266  1.00  0.00     0.189 A 
HETATM   17  N5  UNL     1       2.870  -0.471  -0.603  1.00  0.00    -0.038 NA
BRANCH  16  18
HETATM   18  O3  UNL     1       4.940  -1.685  -0.610  1.00  0.00    -0.271 OA
BRANCH  18  19
HETATM   19  C16 UNL     1       5.202  -1.431   0.766  1.00  0.00     0.506 C 
HETATM   20  F1  UNL     1       5.380  -0.074   0.968  1.00  0.00    -0.184 F 
HETATM   21  F2  UNL     1       6.351  -2.099   1.141  1.00  0.00    -0.184 F 
ENDBRANCH  18  19
ENDBRANCH  16  18
ENDBRANCH  11  12
BRANCH   2  22
HETATM   22  C2  UNL     1      -4.177  -0.061   0.656  1.00  0.00     0.076 A 
HETATM   23  C3  UNL     1      -4.668   0.984  -0.099  1.00  0.00     0.165 A 
HETATM   24  N1  UNL     1      -5.984   0.788  -0.308  1.00  0.00    -0.140 NA
HETATM   25  O2  UNL     1      -6.311  -0.315   0.302  1.00  0.00    -0.225 OA
HETATM   26  C4  UNL     1      -5.276  -0.854   0.904  1.00  0.00     0.188 A 
ENDBRANCH   2  22
TORSDOF 4
