REMARK  3 active torsions:
REMARK  status: ('A' for Active; 'I' for Inactive)
REMARK    1  A    between atoms: C6_6  and  C7_7 
REMARK    2  A    between atoms: C7_7  and  C8_8 
REMARK       I    between atoms: C8_8  and  N1_10 
REMARK    3  A    between atoms: N2_13  and  C11_14 
ROOT
HETATM    1  C8  UNL     1      -0.793   0.668  -0.702  1.00  0.00     0.228 C 
HETATM    2  O1  UNL     1      -0.908   0.334  -1.913  1.00  0.00    -0.273 OA
HETATM    3  N1  UNL     1       0.214   0.029   0.113  1.00  0.00    -0.315 N 
HETATM    4  C9  UNL     1       0.729   0.689   1.324  1.00  0.00     0.152 C 
HETATM    5  C10 UNL     1       2.163   0.275   1.667  1.00  0.00     0.153 C 
HETATM    6  N2  UNL     1       3.034   0.363   0.489  1.00  0.00    -0.312 N 
HETATM    7  C17 UNL     1       2.978  -0.656  -0.531  1.00  0.00     0.260 C 
HETATM    8  O2  UNL     1       3.862  -0.696  -1.430  1.00  0.00    -0.267 OA
HETATM    9  C18 UNL     1       1.900  -1.671  -0.542  1.00  0.00     0.059 A 
HETATM   10  C19 UNL     1       2.198  -2.989  -0.929  1.00  0.00     0.026 A 
HETATM   11  C20 UNL     1       1.195  -3.969  -0.965  1.00  0.00    -0.061 A 
HETATM   12  C21 UNL     1       1.529  -5.384  -1.334  1.00  0.00     0.048 C 
HETATM   13  C22 UNL     1      -0.112  -3.631  -0.592  1.00  0.00     0.009 A 
HETATM   14  C23 UNL     1      -0.421  -2.322  -0.222  1.00  0.00     0.031 A 
HETATM   15  C24 UNL     1       0.575  -1.333  -0.193  1.00  0.00     0.053 A 
ENDROOT
BRANCH   1  16
HETATM   16  C7  UNL     1      -1.701   1.744  -0.159  1.00  0.00     0.142 C 
BRANCH  16  17
HETATM   17  C6  UNL     1      -3.145   1.452  -0.505  1.00  0.00    -0.043 A 
HETATM   18  C5  UNL     1      -3.672   2.023  -1.675  1.00  0.00     0.008 A 
HETATM   19  C4  UNL     1      -4.992   1.792  -2.049  1.00  0.00     0.001 A 
HETATM   20  C3  UNL     1      -5.813   0.995  -1.258  1.00  0.00     0.007 A 
HETATM   21  C2  UNL     1      -5.323   0.407  -0.081  1.00  0.00    -0.056 A 
HETATM   22  C1  UNL     1      -6.261  -0.435   0.746  1.00  0.00     0.049 C 
HETATM   23  C25 UNL     1      -3.962   0.595   0.286  1.00  0.00    -0.049 A 
HETATM   24  C26 UNL     1      -3.418  -0.044   1.547  1.00  0.00     0.049 C 
ENDBRANCH  16  17
ENDBRANCH   1  16
BRANCH   6  25
HETATM   25  C11 UNL     1       4.019   1.410   0.420  1.00  0.00     0.037 A 
HETATM   26  C12 UNL     1       5.389   1.096   0.405  1.00  0.00     0.029 A 
HETATM   27  C13 UNL     1       6.345   2.115   0.351  1.00  0.00     0.002 A 
HETATM   28  C14 UNL     1       5.941   3.453   0.314  1.00  0.00     0.000 A 
HETATM   29  C15 UNL     1       4.581   3.773   0.335  1.00  0.00     0.002 A 
HETATM   30  C16 UNL     1       3.622   2.757   0.390  1.00  0.00     0.029 A 
ENDBRANCH   6  25
TORSDOF 3
