REMARK  4 active torsions:
REMARK  status: ('A' for Active; 'I' for Inactive)
REMARK    1  A    between atoms: O1_2  and  C2_3 
REMARK    2  A    between atoms: C2_3  and  C3_4 
REMARK       I    between atoms: N2_15  and  C12_16 
REMARK    3  A    between atoms: C12_16  and  C13_18 
REMARK    4  A    between atoms: C13_18  and  N3_19 
ROOT
HETATM    1  C3  UNL     1      -2.196   1.250  -0.513  1.00  0.00     0.126 C 
HETATM    2  C4  UNL     1      -3.235   0.434  -1.307  1.00  0.00     0.131 C 
HETATM    3  C5  UNL     1      -2.585  -0.715  -2.020  1.00  0.00     0.224 C 
HETATM    4  O2  UNL     1      -2.444  -0.674  -3.272  1.00  0.00    -0.273 OA
HETATM    5  N1  UNL     1      -2.140  -1.868  -1.294  1.00  0.00    -0.325 N 
HETATM    6  C6  UNL     1      -2.144  -1.925   0.142  1.00  0.00     0.061 A 
HETATM    7  C7  UNL     1      -2.489  -3.125   0.781  1.00  0.00     0.032 A 
HETATM    8  C8  UNL     1      -2.517  -3.200   2.176  1.00  0.00     0.002 A 
HETATM    9  C9  UNL     1      -2.185  -2.084   2.945  1.00  0.00     0.002 A 
HETATM   10  C10 UNL     1      -1.812  -0.892   2.321  1.00  0.00     0.032 A 
HETATM   11  C11 UNL     1      -1.785  -0.803   0.919  1.00  0.00     0.064 A 
HETATM   12  N2  UNL     1      -1.293   0.397   0.290  1.00  0.00    -0.307 N 
HETATM   13  C12 UNL     1       0.068   0.825   0.525  1.00  0.00     0.244 C 
HETATM   14  O3  UNL     1       0.397   2.025   0.312  1.00  0.00    -0.271 OA
HETATM   15  H9  UNL     1      -1.908  -2.733  -1.833  1.00  0.00     0.169 HD
ENDROOT
BRANCH   1  16
HETATM   16  C2  UNL     1      -2.881   2.294   0.383  1.00  0.00     0.193 C 
BRANCH  16  17
HETATM   17  O1  UNL     1      -3.644   1.652   1.383  1.00  0.00    -0.394 OA
HETATM   18  C1  UNL     1      -4.199   2.621   2.239  1.00  0.00     0.201 C 
ENDBRANCH  16  17
ENDBRANCH   1  16
BRANCH  13  19
HETATM   19  C13 UNL     1       1.119  -0.130   1.027  1.00  0.00     0.256 C 
BRANCH  19  20
HETATM   20  N3  UNL     1       2.366   0.041   0.277  1.00  0.00    -0.246 N 
HETATM   21  C14 UNL     1       3.472   0.688   0.715  1.00  0.00     0.275 A 
HETATM   22  O4  UNL     1       3.590   1.230   1.846  1.00  0.00    -0.266 OA
HETATM   23  C15 UNL     1       4.434   0.648  -0.265  1.00  0.00     0.062 A 
HETATM   24  C16 UNL     1       5.740   1.127  -0.324  1.00  0.00     0.019 A 
HETATM   25  C20 UNL     1       3.854  -0.040  -1.301  1.00  0.00     0.066 A 
HETATM   26  C17 UNL     1       6.468   0.880  -1.503  1.00  0.00     0.001 A 
HETATM   27  C18 UNL     1       5.880   0.166  -2.573  1.00  0.00     0.002 A 
HETATM   28  C19 UNL     1       4.556  -0.306  -2.479  1.00  0.00     0.032 A 
HETATM   29  N4  UNL     1       2.591  -0.389  -0.966  1.00  0.00    -0.290 N 
HETATM   30  C21 UNL     1       1.671  -1.195  -1.772  1.00  0.00     0.178 C 
ENDBRANCH  19  20
ENDBRANCH  13  19
TORSDOF 4
