REMARK  3 active torsions:
REMARK  status: ('A' for Active; 'I' for Inactive)
REMARK       I    between atoms: C2_2  and  N1_4 
REMARK    1  A    between atoms: N1_4  and  C3_5 
REMARK    2  A    between atoms: C6_8  and  C7_9 
REMARK       I    between atoms: C7_9  and  N2_11 
REMARK    3  A    between atoms: N3_14  and  C10_15 
ROOT
HETATM    1  C7  UNL     1       0.784  -1.114   1.126  1.00  0.00     0.258 C 
HETATM    2  O2  UNL     1       0.551  -1.726   2.205  1.00  0.00    -0.267 OA
HETATM    3  N2  UNL     1      -0.264  -0.993   0.148  1.00  0.00    -0.311 N 
HETATM    4  C8  UNL     1      -0.607   0.311  -0.420  1.00  0.00     0.153 C 
HETATM    5  C9  UNL     1      -1.658   0.995   0.440  1.00  0.00     0.153 C 
HETATM    6  N3  UNL     1      -2.967   0.360   0.263  1.00  0.00    -0.309 N 
HETATM    7  C16 UNL     1      -3.195  -0.986   0.714  1.00  0.00     0.260 C 
HETATM    8  O3  UNL     1      -4.121  -1.199   1.545  1.00  0.00    -0.267 OA
HETATM    9  C17 UNL     1      -2.474  -2.146   0.134  1.00  0.00     0.059 A 
HETATM   10  C18 UNL     1      -3.204  -3.325  -0.112  1.00  0.00     0.019 A 
HETATM   11  C19 UNL     1      -2.578  -4.461  -0.627  1.00  0.00     0.001 A 
HETATM   12  C20 UNL     1      -1.211  -4.444  -0.894  1.00  0.00     0.002 A 
HETATM   13  C21 UNL     1      -0.467  -3.291  -0.646  1.00  0.00     0.031 A 
HETATM   14  C22 UNL     1      -1.084  -2.135  -0.139  1.00  0.00     0.053 A 
ENDROOT
BRANCH   1  15
HETATM   15  C6  UNL     1       2.136  -0.561   0.882  1.00  0.00     0.032 A 
HETATM   16  C5  UNL     1       2.962  -0.204   1.961  1.00  0.00     0.019 A 
HETATM   17  C4  UNL     1       4.242   0.309   1.734  1.00  0.00     0.030 A 
HETATM   18  C3  UNL     1       4.719   0.478   0.423  1.00  0.00     0.034 A 
HETATM   19  C24 UNL     1       3.909   0.085  -0.652  1.00  0.00     0.030 A 
HETATM   20  C23 UNL     1       2.629  -0.428  -0.427  1.00  0.00     0.019 A 
BRANCH  18  21
HETATM   21  N1  UNL     1       6.039   0.985   0.162  1.00  0.00    -0.328 N 
HETATM   22  C2  UNL     1       6.697   1.974   0.969  1.00  0.00     0.218 C 
HETATM   23  C1  UNL     1       8.134   2.298   0.723  1.00  0.00     0.117 C 
HETATM   24  O1  UNL     1       6.054   2.633   1.831  1.00  0.00    -0.274 OA
HETATM   25  H4  UNL     1       6.517   0.681  -0.716  1.00  0.00     0.169 HD
ENDBRANCH  18  21
ENDBRANCH   1  15
BRANCH   6  26
HETATM   26  C10 UNL     1      -4.107   1.153  -0.120  1.00  0.00     0.076 A 
HETATM   27  C11 UNL     1      -4.378   2.373   0.524  1.00  0.00     0.033 A 
HETATM   28  C12 UNL     1      -5.491   3.135   0.156  1.00  0.00     0.002 A 
HETATM   29  C13 UNL     1      -6.344   2.684  -0.854  1.00  0.00     0.003 A 
HETATM   30  C14 UNL     1      -6.088   1.470  -1.496  1.00  0.00     0.044 A 
HETATM   31  C15 UNL     1      -4.976   0.703  -1.131  1.00  0.00     0.143 A 
HETATM   32  F1  UNL     1      -4.736  -0.466  -1.773  1.00  0.00    -0.204 F 
ENDBRANCH   6  26
TORSDOF 3
