REMARK  3 active torsions:
REMARK  status: ('A' for Active; 'I' for Inactive)
REMARK       I    between atoms: C1_2  and  N1_3 
REMARK    1  A    between atoms: C1_2  and  C21_25 
REMARK       I    between atoms: N1_3  and  C2_4 
REMARK    2  A    between atoms: C2_4  and  C3_6 
REMARK    3  A    between atoms: C5_8  and  C6_9 
ROOT
HETATM    1  O1  UNL     1      -1.123  -3.649   1.126  1.00  0.00    -0.267 OA
HETATM    2  C1  UNL     1      -1.424  -2.429   1.013  1.00  0.00     0.258 C 
HETATM    3  N1  UNL     1      -0.388  -1.452   0.810  1.00  0.00    -0.289 N 
HETATM    4  C2  UNL     1       0.946  -1.793   0.395  1.00  0.00     0.261 C 
HETATM    5  O2  UNL     1       1.184  -2.940  -0.073  1.00  0.00    -0.267 OA
HETATM    6  H1  UNL     1      -0.615  -0.451   0.991  1.00  0.00     0.172 HD
ENDROOT
BRANCH   2   7
HETATM    7  C21 UNL     1      -2.844  -2.017   1.139  1.00  0.00     0.033 A 
HETATM    8  C22 UNL     1      -3.729  -2.795   1.879  1.00  0.00     0.018 A 
HETATM    9  C23 UNL     1      -5.051  -2.400   2.039  1.00  0.00     0.014 A 
HETATM   10  C24 UNL     1      -5.547  -1.205   1.457  1.00  0.00    -0.014 A 
HETATM   11  C25 UNL     1      -4.682  -0.459   0.604  1.00  0.00    -0.013 A 
HETATM   12  C38 UNL     1      -6.874  -0.745   1.707  1.00  0.00    -0.014 A 
HETATM   13  C26 UNL     1      -3.324  -0.871   0.494  1.00  0.00     0.030 A 
HETATM   14  C27 UNL     1      -5.193   0.660  -0.122  1.00  0.00    -0.014 A 
HETATM   15  C28 UNL     1      -4.400   1.370  -1.067  1.00  0.00     0.016 A 
HETATM   16  C32 UNL     1      -6.549   1.072   0.066  1.00  0.00    -0.011 A 
HETATM   17  C29 UNL     1      -4.914   2.436  -1.796  1.00  0.00     0.043 A 
HETATM   18  C30 UNL     1      -6.232   2.819  -1.629  1.00  0.00     0.117 A 
HETATM   19  F1  UNL     1      -6.736   3.842  -2.364  1.00  0.00    -0.206 F 
HETATM   20  C31 UNL     1      -7.044   2.148  -0.722  1.00  0.00     0.055 A 
HETATM   21  C33 UNL     1      -7.372   0.402   1.019  1.00  0.00    -0.014 A 
HETATM   22  C34 UNL     1      -8.685   0.855   1.326  1.00  0.00     0.013 A 
HETATM   23  C35 UNL     1      -9.484   0.195   2.252  1.00  0.00     0.001 A 
HETATM   24  C36 UNL     1      -9.003  -0.917   2.917  1.00  0.00     0.001 A 
HETATM   25  C37 UNL     1      -7.716  -1.377   2.664  1.00  0.00     0.013 A 
ENDBRANCH   2   7
BRANCH   4  26
HETATM   26  C3  UNL     1       2.050  -0.809   0.488  1.00  0.00     0.067 A 
HETATM   27  C4  UNL     1       3.327  -1.041  -0.101  1.00  0.00     0.032 A 
HETATM   28  C5  UNL     1       4.405  -0.091   0.006  1.00  0.00    -0.024 A 
HETATM   29  C17 UNL     1       4.219   1.134   0.706  1.00  0.00     0.024 A 
HETATM   30  C18 UNL     1       2.974   1.321   1.264  1.00  0.00     0.001 A 
HETATM   31  C19 UNL     1       1.935   0.395   1.164  1.00  0.00     0.093 A 
HETATM   32  C20 UNL     1       2.073   2.123   2.023  1.00  0.00     0.217 A 
HETATM   33  O3  UNL     1       1.037   1.206   1.934  1.00  0.00    -0.345 OA
BRANCH  28  34
HETATM   34  C6  UNL     1       5.721  -0.371  -0.631  1.00  0.00    -0.019 C 
HETATM   35  C7  UNL     1       6.259  -1.619  -0.559  1.00  0.00     0.013 C 
HETATM   36  C8  UNL     1       7.506  -2.158  -1.205  1.00  0.00     0.001 C 
HETATM   37  C9  UNL     1       8.422  -1.518  -1.963  1.00  0.00     0.007 C 
HETATM   38  C10 UNL     1       8.395  -0.075  -2.232  1.00  0.00    -0.054 C 
HETATM   39  C11 UNL     1       8.405   0.363  -3.503  1.00  0.00     0.007 C 
HETATM   40  C16 UNL     1       7.894   0.806  -1.152  1.00  0.00     0.078 C 
HETATM   41  C12 UNL     1       7.756   1.638  -3.914  1.00  0.00     0.001 C 
HETATM   42  C13 UNL     1       6.600   2.104  -3.386  1.00  0.00     0.001 C 
HETATM   43  C14 UNL     1       5.830   1.408  -2.317  1.00  0.00     0.008 C 
HETATM   44  C15 UNL     1       6.423   0.739  -1.310  1.00  0.00    -0.043 C 
ENDBRANCH  28  34
ENDBRANCH   4  26
TORSDOF 3
