REMARK  5 active torsions:
REMARK  status: ('A' for Active; 'I' for Inactive)
REMARK    1  A    between atoms: C1_2  and  C2_3 
REMARK       I    between atoms: C1_2  and  N4_19 
REMARK    2  A    between atoms: C2_3  and  N1_4 
REMARK    3  A    between atoms: N2_8  and  C6_9 
REMARK    4  A    between atoms: C6_9  and  C7_10 
REMARK    5  A    between atoms: N4_19  and  C14_20 
ROOT
HETATM    1  N1  UNL     1       0.201  -1.288   0.272  1.00  0.00     0.099 N 
HETATM    2  C3  UNL     1       0.237  -0.358  -0.880  1.00  0.00     0.275 C 
HETATM    3  C4  UNL     1       0.109   1.137  -0.525  1.00  0.00     0.060 C 
HETATM    4  C5  UNL     1      -1.090   1.531   0.358  1.00  0.00     0.274 C 
HETATM    5  N2  UNL     1      -2.193   0.545   0.288  1.00  0.00     0.094 N 
HETATM    6  C12 UNL     1      -1.989  -0.543   1.276  1.00  0.00     0.303 C 
HETATM    7  C13 UNL     1      -1.163  -1.684   0.674  1.00  0.00     0.303 C 
ENDROOT
BRANCH   1   8
HETATM    8  C2  UNL     1       1.096  -0.965   1.402  1.00  0.00     0.374 C 
BRANCH   8   9
HETATM    9  C1  UNL     1       2.531  -1.026   0.971  1.00  0.00     0.250 C 
HETATM   10  O1  UNL     1       3.019  -2.131   0.611  1.00  0.00    -0.271 OA
HETATM   11  N4  UNL     1       3.342   0.159   0.990  1.00  0.00    -0.326 N 
HETATM   12  H18 UNL     1       3.038   0.951   1.600  1.00  0.00     0.169 HD
BRANCH  11  13
HETATM   13  C14 UNL     1       4.584   0.294   0.278  1.00  0.00     0.035 A 
HETATM   14  C15 UNL     1       4.798  -0.353  -0.954  1.00  0.00     0.032 A 
HETATM   15  C16 UNL     1       6.005  -0.183  -1.640  1.00  0.00     0.044 A 
HETATM   16  C17 UNL     1       7.002   0.641  -1.111  1.00  0.00     0.116 A 
HETATM   17  F1  UNL     1       8.170   0.806  -1.778  1.00  0.00    -0.206 F 
HETATM   18  C18 UNL     1       6.789   1.304   0.101  1.00  0.00     0.044 A 
HETATM   19  C19 UNL     1       5.583   1.137   0.789  1.00  0.00     0.032 A 
ENDBRANCH  11  13
ENDBRANCH   8   9
ENDBRANCH   1   8
BRANCH   5  20
HETATM   20  C6  UNL     1      -3.503   1.204   0.492  1.00  0.00     0.314 C 
BRANCH  20  21
HETATM   21  C7  UNL     1      -4.625   0.318  -0.003  1.00  0.00     0.010 A 
HETATM   22  C8  UNL     1      -4.663  -0.028  -1.363  1.00  0.00     0.013 A 
HETATM   23  C9  UNL     1      -5.679  -0.848  -1.853  1.00  0.00     0.020 A 
HETATM   24  C10 UNL     1      -6.656  -1.320  -0.979  1.00  0.00     0.118 A 
HETATM   25  N3  UNL     1      -6.614  -0.980   0.335  1.00  0.00    -0.248 NA
HETATM   26  C11 UNL     1      -5.637  -0.183   0.846  1.00  0.00     0.133 A 
HETATM   27 CL1  UNL     1      -5.687   0.179   2.566  1.00  0.00    -0.062 Cl
ENDBRANCH  20  21
ENDBRANCH   5  20
TORSDOF 5
