REMARK  5 active torsions:
REMARK  status: ('A' for Active; 'I' for Inactive)
REMARK    1  A    between atoms: S1_2  and  C2_3 
REMARK    2  A    between atoms: C2_3  and  C3_4 
REMARK       I    between atoms: C3_4  and  N1_6 
REMARK    3  A    between atoms: N1_6  and  C5_8 
REMARK    4  A    between atoms: C5_8  and  C6_9 
REMARK    5  A    between atoms: N2_11  and  C8_12 
ROOT
HETATM    1  C6  UNL     1       0.185   0.242  -0.449  1.00  0.00     0.035 C 
HETATM    2  C7  UNL     1       1.110   0.853  -1.533  1.00  0.00     0.132 C 
HETATM    3  N2  UNL     1       2.374   0.114  -1.660  1.00  0.00    -0.357 N 
HETATM    4  C11 UNL     1       2.555  -0.793  -2.803  1.00  0.00     0.140 C 
HETATM    5  C12 UNL     1       2.048  -2.198  -2.472  1.00  0.00     0.160 C 
HETATM    6  S3  UNL     1       0.351  -2.178  -1.903  1.00  0.00     0.146 S 
HETATM    7  O2  UNL     1      -0.534  -1.535  -2.934  1.00  0.00    -0.228 OA
HETATM    8  O3  UNL     1      -0.100  -3.595  -1.689  1.00  0.00    -0.228 OA
HETATM    9  C13 UNL     1       0.272  -1.305  -0.337  1.00  0.00     0.148 C 
ENDROOT
BRANCH   1  10
HETATM   10  C5  UNL     1      -1.265   0.745  -0.652  1.00  0.00     0.132 C 
BRANCH  10  11
HETATM   11  N1  UNL     1      -2.135   0.391   0.482  1.00  0.00    -0.355 N 
HETATM   12  C3  UNL     1      -3.108  -0.676   0.353  1.00  0.00     0.228 C 
HETATM   13  O1  UNL     1      -3.134  -1.375  -0.697  1.00  0.00    -0.273 OA
HETATM   14  C4  UNL     1      -1.981   1.128   1.741  1.00  0.00     0.152 C 
BRANCH  12  15
HETATM   15  C2  UNL     1      -4.110  -0.998   1.431  1.00  0.00     0.176 C 
BRANCH  15  16
HETATM   16  S1  UNL     1      -5.809  -0.688   0.836  1.00  0.00    -0.164 SA
HETATM   17  C1  UNL     1      -5.716   1.128   0.950  1.00  0.00     0.090 C 
ENDBRANCH  15  16
ENDBRANCH  12  15
ENDBRANCH  10  11
ENDBRANCH   1  10
BRANCH   3  18
HETATM   18  C8  UNL     1       3.372   0.212  -0.625  1.00  0.00     0.189 A 
HETATM   19  N3  UNL     1       3.289   1.039   0.438  1.00  0.00    -0.207 NA
HETATM   20  C9  UNL     1       4.370   0.904   1.268  1.00  0.00     0.133 A 
HETATM   21  C10 UNL     1       4.517   1.748   2.488  1.00  0.00     0.094 C 
HETATM   22  N4  UNL     1       5.334   0.011   0.905  1.00  0.00    -0.193 NA
HETATM   23  S2  UNL     1       4.787  -0.656  -0.515  1.00  0.00     0.052 SA
ENDBRANCH   3  18
TORSDOF 5
