REMARK  7 active torsions:
REMARK  status: ('A' for Active; 'I' for Inactive)
REMARK    1  A    between atoms: O1_2  and  C2_3 
REMARK    2  A    between atoms: C2_3  and  C3_5 
REMARK    3  A    between atoms: N1_8  and  C6_9 
REMARK    4  A    between atoms: C17_21  and  C18_22 
REMARK    5  A    between atoms: C17_21  and  C19_24 
REMARK    6  A    between atoms: C18_22  and  O3_23 
REMARK    7  A    between atoms: C19_24  and  O4_25 
ROOT
HETATM    1  C3  UNL     1       3.015  -1.060   1.066  1.00  0.00     0.088 C 
HETATM    2  C4  UNL     1       1.757  -1.826   1.531  1.00  0.00     0.034 C 
HETATM    3  C5  UNL     1       0.564  -1.781   0.566  1.00  0.00     0.124 C 
HETATM    4  N1  UNL     1      -0.116  -0.480   0.491  1.00  0.00    -0.378 N 
HETATM    5  C16 UNL     1       0.352   0.737   1.177  1.00  0.00     0.136 C 
HETATM    6  C17 UNL     1       1.720   1.283   0.665  1.00  0.00     0.019 C 
HETATM    7  C20 UNL     1       2.923   0.476   1.260  1.00  0.00     0.030 C 
ENDROOT
BRANCH   4   8
HETATM    8  C6  UNL     1      -1.412  -0.459  -0.141  1.00  0.00     0.054 A 
HETATM    9  C7  UNL     1      -1.496  -0.583  -1.533  1.00  0.00     0.147 A 
HETATM   10  N2  UNL     1      -2.693  -0.503  -2.163  1.00  0.00    -0.258 NA
HETATM   11  C8  UNL     1      -3.850  -0.302  -1.485  1.00  0.00     0.067 A 
HETATM   12  C9  UNL     1      -5.053  -0.202  -2.194  1.00  0.00     0.032 A 
HETATM   13  C13 UNL     1      -3.840  -0.193  -0.073  1.00  0.00     0.001 A 
HETATM   14  C10 UNL     1      -6.252   0.020  -1.516  1.00  0.00     0.002 A 
HETATM   15  C11 UNL     1      -6.255   0.147  -0.127  1.00  0.00     0.001 A 
HETATM   16  C12 UNL     1      -5.062   0.044   0.594  1.00  0.00     0.014 A 
HETATM   17  C14 UNL     1      -2.604  -0.322   0.614  1.00  0.00    -0.021 A 
HETATM   18  C15 UNL     1      -2.553  -0.323   2.126  1.00  0.00     0.051 C 
ENDBRANCH   4   8
BRANCH   6  19
HETATM   19  C18 UNL     1       1.877   2.733   1.226  1.00  0.00     0.177 C 
BRANCH  19  20
HETATM   20  O3  UNL     1       0.890   3.594   0.721  1.00  0.00    -0.400 OA
HETATM   21  H21 UNL     1       1.062   4.482   1.127  1.00  0.00     0.209 HD
ENDBRANCH  19  20
ENDBRANCH   6  19
BRANCH   6  22
HETATM   22  C19 UNL     1       1.781   1.395  -0.887  1.00  0.00     0.177 C 
BRANCH  22  23
HETATM   23  O4  UNL     1       1.677   0.153  -1.517  1.00  0.00    -0.400 OA
HETATM   24  H24 UNL     1       1.767   0.326  -2.491  1.00  0.00     0.209 HD
ENDBRANCH  22  23
ENDBRANCH   6  22
BRANCH   1  25
HETATM   25  C2  UNL     1       3.556  -1.494  -0.278  1.00  0.00     0.262 C 
HETATM   26  O2  UNL     1       3.363  -2.674  -0.685  1.00  0.00    -0.265 OA
BRANCH  25  27
HETATM   27  O1  UNL     1       4.368  -0.626  -1.016  1.00  0.00    -0.326 OA
HETATM   28  C1  UNL     1       4.921  -0.978  -2.278  1.00  0.00     0.213 C 
ENDBRANCH  25  27
ENDBRANCH   1  25
TORSDOF 7
