REMARK  6 active torsions:
REMARK  status: ('A' for Active; 'I' for Inactive)
REMARK    1  A    between atoms: C4_4  and  C5_5 
REMARK       I    between atoms: C5_5  and  N1_7 
REMARK    2  A    between atoms: N1_7  and  C6_8 
REMARK    3  A    between atoms: N2_12  and  C10_13 
REMARK    4  A    between atoms: C10_13  and  C11_14 
REMARK    5  A    between atoms: C13_17  and  C14_18 
REMARK    6  A    between atoms: N5_25  and  C19_26 
ROOT
HETATM    1  C6  UNL     1      -0.559  -0.122   0.055  1.00  0.00     0.086 C 
HETATM    2  C7  UNL     1      -0.123   1.364  -0.082  1.00  0.00     0.027 C 
HETATM    3  C8  UNL     1       1.342   1.671   0.280  1.00  0.00     0.032 C 
HETATM    4  C9  UNL     1       2.378   0.879  -0.538  1.00  0.00     0.273 C 
HETATM    5  N2  UNL     1       2.055  -0.560  -0.657  1.00  0.00     0.096 N 
HETATM    6  C17 UNL     1       1.736  -1.204   0.639  1.00  0.00     0.275 C 
HETATM    7  C18 UNL     1       0.277  -0.927   1.081  1.00  0.00     0.055 C 
ENDROOT
BRANCH   1   8
HETATM    8  N1  UNL     1      -1.978  -0.178   0.423  1.00  0.00    -0.351 N 
HETATM    9  C5  UNL     1      -3.028  -0.056  -0.553  1.00  0.00     0.272 C 
HETATM   10  O1  UNL     1      -2.740   0.073  -1.774  1.00  0.00    -0.266 OA
HETATM   11  H5  UNL     1      -2.224  -0.220   1.438  1.00  0.00     0.163 HD
BRANCH   9  12
HETATM   12  C4  UNL     1      -4.447  -0.084  -0.158  1.00  0.00     0.146 A 
HETATM   13  C3  UNL     1      -4.954  -0.189   1.129  1.00  0.00     0.065 A 
HETATM   14  C2  UNL     1      -6.323  -0.192   0.954  1.00  0.00     0.029 A 
HETATM   15  C1  UNL     1      -7.345  -0.276   2.044  1.00  0.00     0.070 C 
HETATM   16  N5  UNL     1      -6.595  -0.068  -0.362  1.00  0.00    -0.269 N 
HETATM   17  N4  UNL     1      -5.462  -0.022  -1.045  1.00  0.00    -0.167 NA
BRANCH  16  18
HETATM   18  C19 UNL     1      -7.918  -0.093  -0.983  1.00  0.00     0.110 A 
HETATM   19  C20 UNL     1      -8.117   0.948  -2.074  1.00  0.00     0.029 A 
HETATM   20  C21 UNL     1      -8.744   1.153  -0.705  1.00  0.00     0.029 A 
ENDBRANCH  16  18
ENDBRANCH   9  12
ENDBRANCH   1   8
BRANCH   5  21
HETATM   21  C10 UNL     1       3.080  -1.297  -1.428  1.00  0.00     0.358 C 
BRANCH  21  22
HETATM   22  C11 UNL     1       4.395  -1.402  -0.707  1.00  0.00     0.173 A 
HETATM   23  N3  UNL     1       4.704  -2.408   0.141  1.00  0.00    -0.237 NA
HETATM   24  C12 UNL     1       5.943  -2.090   0.564  1.00  0.00     0.152 A 
HETATM   25  C13 UNL     1       6.331  -0.914  -0.039  1.00  0.00     0.076 A 
HETATM   26  O2  UNL     1       5.356  -0.511  -0.815  1.00  0.00    -0.296 OA
BRANCH  25  27
HETATM   27  C14 UNL     1       7.621  -0.176   0.180  1.00  0.00     0.036 C 
HETATM   28  C15 UNL     1       7.380   1.038   1.080  1.00  0.00     0.016 C 
HETATM   29  C16 UNL     1       8.229   0.250  -1.159  1.00  0.00     0.016 C 
ENDBRANCH  25  27
ENDBRANCH  21  22
ENDBRANCH   5  21
TORSDOF 6
