REMARK  2 active torsions:
REMARK  status: ('A' for Active; 'I' for Inactive)
REMARK    1  A    between atoms: C9_9  and  C10_10 
REMARK       I    between atoms: C10_10  and  N1_12 
REMARK    2  A    between atoms: C12_14  and  C13_15 
ROOT
HETATM    1  C10 UNL     1      -0.074   0.155  -1.406  1.00  0.00     0.258 C 
HETATM    2  O1  UNL     1      -0.276   1.002  -2.318  1.00  0.00    -0.267 OA
HETATM    3  N1  UNL     1       0.915  -0.882  -1.606  1.00  0.00    -0.310 N 
HETATM    4  C11 UNL     1       2.007  -0.702  -2.560  1.00  0.00     0.162 C 
HETATM    5  C12 UNL     1       3.260  -0.201  -1.848  1.00  0.00     0.136 C 
HETATM    6  N2  UNL     1       3.839  -1.215  -0.958  1.00  0.00    -0.347 N 
HETATM    7  C19 UNL     1       3.158  -2.084  -0.029  1.00  0.00     0.254 C 
HETATM    8  O2  UNL     1       3.753  -2.359   1.049  1.00  0.00    -0.268 OA
HETATM    9  C20 UNL     1       1.858  -2.769  -0.297  1.00  0.00     0.059 A 
HETATM   10  C21 UNL     1       1.662  -4.047   0.267  1.00  0.00     0.019 A 
HETATM   11  C22 UNL     1       0.444  -4.715   0.135  1.00  0.00     0.001 A 
HETATM   12  C23 UNL     1      -0.607  -4.120  -0.556  1.00  0.00     0.002 A 
HETATM   13  C24 UNL     1      -0.441  -2.856  -1.119  1.00  0.00     0.031 A 
HETATM   14  C25 UNL     1       0.781  -2.171  -0.996  1.00  0.00     0.053 A 
HETATM   15  H17 UNL     1       4.870  -1.123  -0.808  1.00  0.00     0.163 HD
ENDROOT
BRANCH   1  16
HETATM   16  C9  UNL     1      -0.863   0.257  -0.152  1.00  0.00     0.033 A 
HETATM   17  C8  UNL     1      -0.318  -0.135   1.079  1.00  0.00     0.018 A 
HETATM   18  C7  UNL     1      -1.059  -0.020   2.254  1.00  0.00     0.013 A 
HETATM   19  C6  UNL     1      -2.361   0.497   2.223  1.00  0.00    -0.025 A 
HETATM   20  C5  UNL     1      -3.098   0.607   3.410  1.00  0.00     0.012 A 
HETATM   21  C27 UNL     1      -2.932   0.911   0.991  1.00  0.00    -0.019 A 
HETATM   22  C4  UNL     1      -4.392   1.124   3.388  1.00  0.00     0.001 A 
HETATM   23  C3  UNL     1      -4.965   1.535   2.185  1.00  0.00     0.007 A 
HETATM   24  C2  UNL     1      -4.251   1.436   0.978  1.00  0.00    -0.051 A 
HETATM   25  C1  UNL     1      -4.916   1.893  -0.296  1.00  0.00     0.049 C 
HETATM   26  C26 UNL     1      -2.164   0.788  -0.187  1.00  0.00     0.029 A 
ENDBRANCH   1  16
BRANCH   5  27
HETATM   27  C13 UNL     1       3.026   1.132  -1.151  1.00  0.00    -0.034 A 
HETATM   28  C14 UNL     1       2.860   1.239   0.245  1.00  0.00     0.009 A 
HETATM   29  C15 UNL     1       2.572   2.474   0.832  1.00  0.00     0.001 A 
HETATM   30  C16 UNL     1       2.452   3.618   0.040  1.00  0.00     0.000 A 
HETATM   31  C17 UNL     1       2.622   3.528  -1.342  1.00  0.00     0.001 A 
HETATM   32  C18 UNL     1       2.906   2.295  -1.935  1.00  0.00     0.009 A 
ENDBRANCH   5  27
TORSDOF 2
