REMARK  4 active torsions:
REMARK  status: ('A' for Active; 'I' for Inactive)
REMARK    1  A    between atoms: O1_2  and  C2_3 
REMARK    2  A    between atoms: C5_6  and  C6_7 
REMARK    3  A    between atoms: C6_7  and  N1_8 
REMARK    4  A    between atoms: C10_14  and  C11_15 
ROOT
HETATM    1  N1  UNL     1       0.230  -0.558   0.699  1.00  0.00    -0.345 N 
HETATM    2  C7  UNL     1      -0.364  -1.822   1.169  1.00  0.00     0.135 C 
HETATM    3  C8  UNL     1       0.693  -2.832   1.634  1.00  0.00     0.122 C 
HETATM    4  C9  UNL     1       1.816  -2.926   0.645  1.00  0.00     0.220 C 
HETATM    5  O2  UNL     1       1.932  -3.960  -0.064  1.00  0.00    -0.274 OA
HETATM    6  N2  UNL     1       2.715  -1.825   0.445  1.00  0.00    -0.344 N 
HETATM    7  C10 UNL     1       2.722  -0.626   1.298  1.00  0.00     0.210 C 
HETATM    8  C17 UNL     1       1.355   0.016   1.379  1.00  0.00     0.247 C 
HETATM    9  O3  UNL     1       1.201   1.076   2.046  1.00  0.00    -0.271 OA
HETATM   10  H12 UNL     1       3.465  -1.946  -0.274  1.00  0.00     0.163 HD
ENDROOT
BRANCH   1  11
HETATM   11  C6  UNL     1      -0.230   0.058  -0.551  1.00  0.00     0.165 C 
BRANCH  11  12
HETATM   12  C5  UNL     1      -1.718   0.336  -0.499  1.00  0.00    -0.034 A 
HETATM   13  C4  UNL     1      -2.197   1.186   0.514  1.00  0.00     0.012 A 
HETATM   14  C3  UNL     1      -3.559   1.466   0.623  1.00  0.00     0.037 A 
HETATM   15  C2  UNL     1      -4.471   0.924  -0.281  1.00  0.00     0.068 A 
HETATM   16  C20 UNL     1      -4.004   0.089  -1.312  1.00  0.00     0.044 A 
HETATM   17  C18 UNL     1      -2.635  -0.209  -1.434  1.00  0.00    -0.051 A 
HETATM   18  C19 UNL     1      -2.184  -1.102  -2.561  1.00  0.00     0.049 C 
BRANCH  15  19
HETATM   19  O1  UNL     1      -5.830   1.237  -0.123  1.00  0.00    -0.356 OA
HETATM   20  C1  UNL     1      -6.867   0.787  -0.989  1.00  0.00     0.210 C 
ENDBRANCH  15  19
ENDBRANCH  11  12
ENDBRANCH   1  11
BRANCH   7  21
HETATM   21  C11 UNL     1       3.728   0.378   0.774  1.00  0.00    -0.026 A 
HETATM   22  C12 UNL     1       4.782   0.824   1.590  1.00  0.00     0.010 A 
HETATM   23  C13 UNL     1       5.716   1.743   1.099  1.00  0.00     0.001 A 
HETATM   24  C14 UNL     1       5.606   2.224  -0.207  1.00  0.00     0.000 A 
HETATM   25  C15 UNL     1       4.561   1.791  -1.025  1.00  0.00     0.001 A 
HETATM   26  C16 UNL     1       3.623   0.875  -0.538  1.00  0.00     0.010 A 
ENDBRANCH   7  21
TORSDOF 4
