REMARK  4 active torsions:
REMARK  status: ('A' for Active; 'I' for Inactive)
REMARK    1  A    between atoms: C8_10  and  C9_11 
REMARK       I    between atoms: C9_11  and  N2_13 
REMARK    2  A    between atoms: C12_16  and  C13_17 
REMARK    3  A    between atoms: C12_16  and  C14_19 
REMARK    4  A    between atoms: C13_17  and  O3_18 
ROOT
HETATM    1  C9  UNL     1       1.863  -0.544  -1.790  1.00  0.00     0.254 C 
HETATM    2  O2  UNL     1       1.748  -1.305  -2.789  1.00  0.00    -0.267 OA
HETATM    3  N2  UNL     1       0.696  -0.163  -1.043  1.00  0.00    -0.348 N 
HETATM    4  C10 UNL     1      -0.423  -1.098  -0.912  1.00  0.00     0.127 C 
HETATM    5  C11 UNL     1      -1.084  -0.905   0.454  1.00  0.00     0.034 C 
HETATM    6  C12 UNL     1      -1.658   0.539   0.654  1.00  0.00     0.017 C 
HETATM    7  C19 UNL     1      -0.911   1.573  -0.280  1.00  0.00     0.034 C 
HETATM    8  C20 UNL     1       0.559   1.221  -0.565  1.00  0.00     0.127 C 
ENDROOT
BRANCH   1   9
HETATM    9  C8  UNL     1       3.197  -0.043  -1.418  1.00  0.00     0.041 A 
HETATM   10  C3  UNL     1       3.704  -0.204  -0.118  1.00  0.00    -0.009 A 
HETATM   11  C2  UNL     1       3.095  -0.939   1.051  1.00  0.00     0.163 A 
HETATM   12  C4  UNL     1       4.963   0.257   0.205  1.00  0.00     0.041 A 
HETATM   13  N1  UNL     1       4.119  -0.838   2.093  1.00  0.00    -0.353 N 
HETATM   14  C1  UNL     1       5.226  -0.121   1.569  1.00  0.00     0.252 A 
HETATM   15  H1  UNL     1       4.051  -1.237   3.055  1.00  0.00     0.163 HD
HETATM   16  O1  UNL     1       6.278   0.125   2.216  1.00  0.00    -0.268 OA
HETATM   17  C5  UNL     1       5.781   0.898  -0.723  1.00  0.00     0.018 A 
HETATM   18  C6  UNL     1       5.293   1.066  -2.028  1.00  0.00     0.002 A 
HETATM   19  C7  UNL     1       4.013   0.591  -2.377  1.00  0.00     0.018 A 
ENDBRANCH   1   9
BRANCH   6  20
HETATM   20  C13 UNL     1      -1.444   0.972   2.137  1.00  0.00     0.176 C 
BRANCH  20  21
HETATM   21  O3  UNL     1      -0.082   1.081   2.449  1.00  0.00    -0.400 OA
HETATM   22  H13 UNL     1      -0.035   1.375   3.396  1.00  0.00     0.209 HD
ENDBRANCH  20  21
ENDBRANCH   6  20
BRANCH   6  23
HETATM   23  C14 UNL     1      -3.220   0.539   0.392  1.00  0.00     0.105 A 
HETATM   24  N3  UNL     1      -3.721   1.832   0.208  1.00  0.00    -0.357 N 
HETATM   25  C15 UNL     1      -3.712   0.760  -0.889  1.00  0.00     0.153 A 
HETATM   26  H14 UNL     1      -3.956   2.786   0.558  1.00  0.00     0.162 HD
HETATM   27  N4  UNL     1      -4.021   0.349  -2.072  1.00  0.00    -0.133 NA
HETATM   28  N5  UNL     1      -3.851  -0.979  -2.506  1.00  0.00    -0.137 NA
HETATM   29  C16 UNL     1      -3.833  -2.074  -1.789  1.00  0.00     0.275 C 
HETATM   30  O4  UNL     1      -4.097  -2.169  -0.409  1.00  0.00    -0.343 OA
HETATM   31  C18 UNL     1      -4.975  -1.353   0.366  1.00  0.00     0.179 C 
HETATM   32  C17 UNL     1      -4.170  -0.359   1.228  1.00  0.00     0.067 C 
ENDBRANCH   6  23
TORSDOF 4
