REMARK  3 active torsions:
REMARK  status: ('A' for Active; 'I' for Inactive)
REMARK    1  A    between atoms: O1_2  and  C2_3 
REMARK    2  A    between atoms: C6_7  and  N1_8 
REMARK    3  A    between atoms: C10_14  and  C11_15 
ROOT
HETATM    1  N1  UNL     1       1.349  -0.508  -1.399  1.00  0.00    -0.378 N 
HETATM    2  C7  UNL     1       1.766   0.268  -2.575  1.00  0.00     0.132 C 
HETATM    3  C8  UNL     1       1.231   1.702  -2.521  1.00  0.00     0.122 C 
HETATM    4  C9  UNL     1      -0.224   1.758  -2.891  1.00  0.00     0.219 C 
HETATM    5  O2  UNL     1      -0.570   2.392  -3.923  1.00  0.00    -0.274 OA
HETATM    6  N2  UNL     1      -1.228   1.106  -2.102  1.00  0.00    -0.351 N 
HETATM    7  C10 UNL     1      -0.923   0.338  -0.891  1.00  0.00     0.135 C 
HETATM    8  C19 UNL     1      -0.059  -0.891  -1.233  1.00  0.00     0.153 C 
HETATM    9  H11 UNL     1      -2.220   1.194  -2.421  1.00  0.00     0.163 HD
ENDROOT
BRANCH   7  10
HETATM   10  C11 UNL     1      -2.210  -0.073  -0.202  1.00  0.00    -0.033 A 
HETATM   11  C12 UNL     1      -3.092  -1.007  -0.810  1.00  0.00     0.011 A 
HETATM   12  C13 UNL     1      -4.299  -1.370  -0.187  1.00  0.00     0.031 A 
HETATM   13  C14 UNL     1      -4.605  -0.779   1.035  1.00  0.00     0.042 A 
HETATM   14  N3  UNL     1      -5.711  -0.960   1.774  1.00  0.00    -0.365 N 
HETATM   15  C17 UNL     1      -3.771   0.132   1.621  1.00  0.00    -0.008 A 
HETATM   16  C15 UNL     1      -5.574  -0.149   2.848  1.00  0.00     0.089 A 
HETATM   17  H15 UNL     1      -6.519  -1.583   1.559  1.00  0.00     0.165 HD
HETATM   18  C16 UNL     1      -4.373   0.551   2.787  1.00  0.00     0.030 A 
HETATM   19  C18 UNL     1      -2.565   0.512   1.036  1.00  0.00     0.023 A 
ENDBRANCH   7  10
BRANCH   1  20
HETATM   20  C6  UNL     1       2.314  -0.859  -0.389  1.00  0.00     0.032 A 
HETATM   21  C5  UNL     1       2.469  -2.198   0.006  1.00  0.00     0.029 A 
HETATM   22  C4  UNL     1       3.396  -2.540   0.992  1.00  0.00     0.005 A 
HETATM   23  C3  UNL     1       4.177  -1.551   1.591  1.00  0.00     0.037 A 
HETATM   24  C2  UNL     1       4.047  -0.212   1.204  1.00  0.00     0.070 A 
HETATM   25  C20 UNL     1       3.111   0.130   0.210  1.00  0.00     0.066 A 
BRANCH  24  26
HETATM   26  O1  UNL     1       4.863   0.742   1.829  1.00  0.00    -0.356 OA
HETATM   27  C1  UNL     1       4.855   2.133   1.528  1.00  0.00     0.210 C 
ENDBRANCH  24  26
ENDBRANCH   1  20
TORSDOF 3
