REMARK  3 active torsions:
REMARK  status: ('A' for Active; 'I' for Inactive)
REMARK       I    between atoms: C1_2  and  N1_3 
REMARK    1  A    between atoms: C1_2  and  C21_26 
REMARK    2  A    between atoms: N1_3  and  S1_4 
REMARK    3  A    between atoms: S1_4  and  C2_7 
ROOT
HETATM    1  O1  UNL     1      -1.744  -3.043  -0.628  1.00  0.00    -0.267 OA
HETATM    2  C1  UNL     1      -1.389  -1.855  -0.857  1.00  0.00     0.265 C 
HETATM    3  N1  UNL     1      -0.052  -1.438  -0.554  1.00  0.00    -0.246 N 
HETATM    4  H1  UNL     1       0.188  -0.423  -0.538  1.00  0.00     0.182 HD
ENDROOT
BRANCH   2   5
HETATM    5  C21 UNL     1      -2.378  -0.896  -1.406  1.00  0.00     0.035 C 
HETATM    6  C22 UNL     1      -3.598  -0.807  -0.721  1.00  0.00     0.031 C 
HETATM    7  C23 UNL     1      -4.461   0.297  -0.751  1.00  0.00     0.004 C 
HETATM    8  C24 UNL     1      -5.140   0.660  -1.859  1.00  0.00     0.063 C 
HETATM    9  C40 UNL     1      -4.696   0.939   0.478  1.00  0.00    -0.013 A 
HETATM   10  C25 UNL     1      -5.000  -0.008  -3.077  1.00  0.00     0.146 C 
HETATM   11  N3  UNL     1      -6.025   1.693  -1.823  1.00  0.00    -0.321 N 
HETATM   12  N2  UNL     1      -3.905   0.148  -3.852  1.00  0.00    -0.271 NA
HETATM   13  C26 UNL     1      -2.630   0.457  -3.516  1.00  0.00     0.117 C 
HETATM   14  C27 UNL     1      -1.933  -0.001  -2.394  1.00  0.00     0.036 C 
HETATM   15  C28 UNL     1      -7.315   1.542  -1.415  1.00  0.00     0.257 C 
HETATM   16  H19 UNL     1      -5.878   2.429  -2.552  1.00  0.00     0.169 HD
HETATM   17  O4  UNL     1      -8.188   2.320  -1.893  1.00  0.00    -0.267 OA
HETATM   18  C29 UNL     1      -7.736   0.503  -0.563  1.00  0.00     0.043 A 
HETATM   19  C30 UNL     1      -8.965  -0.128  -0.852  1.00  0.00     0.018 A 
HETATM   20  C34 UNL     1      -7.050   0.154   0.637  1.00  0.00    -0.009 A 
HETATM   21  C31 UNL     1      -9.473  -1.129  -0.026  1.00  0.00     0.001 A 
HETATM   22  C32 UNL     1      -8.790  -1.491   1.129  1.00  0.00     0.001 A 
HETATM   23  C33 UNL     1      -7.604  -0.844   1.469  1.00  0.00     0.013 A 
HETATM   24  C35 UNL     1      -5.956   0.896   1.136  1.00  0.00    -0.014 A 
HETATM   25  C36 UNL     1      -6.065   1.461   2.426  1.00  0.00     0.013 A 
HETATM   26  C37 UNL     1      -4.971   2.068   3.041  1.00  0.00     0.001 A 
HETATM   27  C38 UNL     1      -3.736   2.092   2.400  1.00  0.00     0.001 A 
HETATM   28  C39 UNL     1      -3.594   1.517   1.139  1.00  0.00     0.013 A 
ENDBRANCH   2   5
BRANCH   3  29
HETATM   29  S1  UNL     1       1.184  -2.563  -0.098  1.00  0.00     0.265 S 
HETATM   30  O2  UNL     1       1.021  -2.944   1.347  1.00  0.00    -0.200 OA
HETATM   31  O3  UNL     1       1.088  -3.799  -0.949  1.00  0.00    -0.200 OA
BRANCH  29  32
HETATM   32  C2  UNL     1       2.750  -1.795  -0.337  1.00  0.00     0.080 A 
HETATM   33  C3  UNL     1       3.557  -2.147  -1.424  1.00  0.00     0.026 A 
HETATM   34  C4  UNL     1       4.773  -1.496  -1.635  1.00  0.00     0.014 A 
HETATM   35  C5  UNL     1       5.203  -0.473  -0.770  1.00  0.00    -0.018 A 
HETATM   36  C6  UNL     1       4.387  -0.120   0.330  1.00  0.00    -0.041 A 
HETATM   37  C20 UNL     1       6.480   0.246  -1.060  1.00  0.00    -0.014 A 
HETATM   38  C7  UNL     1       3.169  -0.789   0.539  1.00  0.00     0.033 A 
HETATM   39  C8  UNL     1       4.842   0.921   1.314  1.00  0.00     0.078 C 
HETATM   40  C9  UNL     1       6.032   0.377   2.053  1.00  0.00    -0.043 A 
HETATM   41  C10 UNL     1       5.905   0.014   3.405  1.00  0.00     0.008 A 
HETATM   42  C14 UNL     1       7.256   0.158   1.378  1.00  0.00    -0.018 A 
HETATM   43  C11 UNL     1       6.984  -0.544   4.091  1.00  0.00     0.001 A 
HETATM   44  C12 UNL     1       8.194  -0.758   3.433  1.00  0.00     0.001 A 
HETATM   45  C13 UNL     1       8.331  -0.412   2.087  1.00  0.00     0.013 A 
HETATM   46  C15 UNL     1       7.441   0.544  -0.051  1.00  0.00    -0.014 A 
HETATM   47  C16 UNL     1       8.616   1.234  -0.411  1.00  0.00     0.013 A 
HETATM   48  C17 UNL     1       8.846   1.618  -1.732  1.00  0.00     0.001 A 
HETATM   49  C18 UNL     1       7.907   1.327  -2.717  1.00  0.00     0.001 A 
HETATM   50  C19 UNL     1       6.734   0.650  -2.385  1.00  0.00     0.013 A 
ENDBRANCH  29  32
ENDBRANCH   3  29
TORSDOF 3
