REMARK  2 active torsions:
REMARK  status: ('A' for Active; 'I' for Inactive)
REMARK    1  A    between atoms: C1_2  and  C2_3 
REMARK       I    between atoms: C1_2  and  N1_12 
REMARK    2  A    between atoms: C19_22  and  C20_23 
ROOT
HETATM    1  O1  UNL     1       0.734  -0.902   2.585  1.00  0.00    -0.267 OA
HETATM    2  C1  UNL     1       0.914  -0.712   1.352  1.00  0.00     0.254 C 
HETATM    3  N1  UNL     1      -0.220  -0.737   0.465  1.00  0.00    -0.335 N 
HETATM    4  C10 UNL     1      -0.208  -1.654  -0.685  1.00  0.00     0.127 C 
HETATM    5  C11 UNL     1      -0.810  -3.012  -0.300  1.00  0.00     0.025 C 
HETATM    6  C12 UNL     1      -2.036  -2.889   0.615  1.00  0.00     0.041 C 
HETATM    7  C13 UNL     1      -3.012  -1.858   0.100  1.00  0.00    -0.049 A 
HETATM    8  C14 UNL     1      -4.210  -2.296  -0.491  1.00  0.00     0.007 A 
HETATM    9  C15 UNL     1      -5.144  -1.379  -0.967  1.00  0.00     0.001 A 
HETATM   10  C16 UNL     1      -4.897  -0.013  -0.855  1.00  0.00     0.001 A 
HETATM   11  C17 UNL     1      -3.707   0.442  -0.284  1.00  0.00     0.010 A 
HETATM   12  C18 UNL     1      -2.721  -0.465   0.168  1.00  0.00    -0.025 A 
HETATM   13  C19 UNL     1      -1.427   0.039   0.835  1.00  0.00     0.154 C 
ENDROOT
BRANCH   2  14
HETATM   14  C2  UNL     1       2.285  -0.460   0.848  1.00  0.00     0.033 A 
HETATM   15  C3  UNL     1       3.409  -0.884   1.598  1.00  0.00     0.018 A 
HETATM   16  C4  UNL     1       4.714  -0.642   1.137  1.00  0.00     0.014 A 
HETATM   17  C5  UNL     1       4.888   0.033  -0.071  1.00  0.00    -0.019 A 
HETATM   18  C6  UNL     1       6.109   0.352  -0.674  1.00  0.00     0.020 A 
HETATM   19  C8  UNL     1       3.789   0.460  -0.794  1.00  0.00     0.016 A 
HETATM   20  C7  UNL     1       5.951   1.037  -1.877  1.00  0.00     0.051 A 
HETATM   21  S1  UNL     1       4.301   1.240  -2.186  1.00  0.00    -0.101 SA
HETATM   22  C9  UNL     1       2.487   0.239  -0.361  1.00  0.00     0.036 A 
ENDBRANCH   2  14
BRANCH  13  23
HETATM   23  C20 UNL     1      -1.143   1.509   0.584  1.00  0.00    -0.031 A 
HETATM   24  C21 UNL     1      -1.185   2.432   1.644  1.00  0.00     0.009 A 
HETATM   25  C22 UNL     1      -0.899   3.781   1.418  1.00  0.00     0.001 A 
HETATM   26  C23 UNL     1      -0.567   4.220   0.134  1.00  0.00     0.000 A 
HETATM   27  C24 UNL     1      -0.524   3.312  -0.927  1.00  0.00     0.001 A 
HETATM   28  C25 UNL     1      -0.816   1.964  -0.707  1.00  0.00     0.009 A 
ENDBRANCH  13  23
TORSDOF 2
