REMARK  2 active torsions:
REMARK  status: ('A' for Active; 'I' for Inactive)
REMARK    1  A    between atoms: C2_2  and  C3_3 
REMARK       I    between atoms: N1_5  and  C5_6 
REMARK       I    between atoms: C5_6  and  N2_8 
REMARK    2  A    between atoms: N2_8  and  C6_9 
ROOT
HETATM    1  C3  UNL     1      -3.089  -0.046   0.381  1.00  0.00    -0.019 A 
HETATM    2  C4  UNL     1      -1.765   0.244   0.727  1.00  0.00     0.111 A 
HETATM    3  N1  UNL     1      -0.913  -0.669   0.203  1.00  0.00    -0.274 N 
HETATM    4  C5  UNL     1       0.514  -0.698   0.393  1.00  0.00     0.331 C 
HETATM    5  O1  UNL     1       1.113  -1.806   0.447  1.00  0.00    -0.246 OA
HETATM    6  N2  UNL     1       1.249   0.526   0.570  1.00  0.00    -0.308 N 
HETATM    7  C16 UNL     1      -1.677  -1.552  -0.474  1.00  0.00     0.054 A 
HETATM    8  C17 UNL     1      -1.260  -2.666  -1.213  1.00  0.00     0.031 A 
HETATM    9  C18 UNL     1      -2.240  -3.446  -1.849  1.00  0.00     0.002 A 
HETATM   10  C19 UNL     1      -3.601  -3.102  -1.747  1.00  0.00     0.001 A 
HETATM   11  C20 UNL     1      -3.997  -1.972  -1.013  1.00  0.00     0.014 A 
HETATM   12  C21 UNL     1      -3.007  -1.206  -0.387  1.00  0.00    -0.000 A 
HETATM   13  H5  UNL     1       0.719   1.409   0.739  1.00  0.00     0.170 HD
ENDROOT
BRANCH   1  14
HETATM   14  C2  UNL     1      -4.348   0.717   0.813  1.00  0.00     0.004 C 
HETATM   15  C1  UNL     1      -3.957   1.981   1.625  1.00  0.00     0.022 C 
HETATM   16  C22 UNL     1      -5.191  -0.200   1.740  1.00  0.00     0.136 C 
HETATM   17  N4  UNL     1      -6.446   0.456   2.088  1.00  0.00    -0.358 N 
HETATM   18  C23 UNL     1      -7.194   1.107   1.063  1.00  0.00     0.251 C 
HETATM   19  H22 UNL     1      -6.743   0.530   3.087  1.00  0.00     0.162 HD
HETATM   20  O3  UNL     1      -8.271   1.699   1.343  1.00  0.00    -0.270 OA
HETATM   21  C24 UNL     1      -6.708   1.041  -0.352  1.00  0.00     0.262 C 
HETATM   22  F1  UNL     1      -7.107  -0.167  -0.894  1.00  0.00    -0.239 F 
HETATM   23  C25 UNL     1      -5.168   1.178  -0.451  1.00  0.00     0.062 C 
ENDBRANCH   1  14
BRANCH   6  24
HETATM   24  C6  UNL     1       2.685   0.599   0.611  1.00  0.00     0.038 A 
HETATM   25  C7  UNL     1       3.298   1.526   1.456  1.00  0.00     0.030 A 
HETATM   26  C8  UNL     1       4.686   1.635   1.495  1.00  0.00     0.012 A 
HETATM   27  C9  UNL     1       5.501   0.834   0.674  1.00  0.00    -0.031 A 
HETATM   28  C10 UNL     1       4.888  -0.116  -0.192  1.00  0.00     0.043 A 
HETATM   29  C15 UNL     1       6.996   1.030   0.764  1.00  0.00     0.041 C 
HETATM   30  C11 UNL     1       3.483  -0.200  -0.221  1.00  0.00     0.059 A 
HETATM   31  N3  UNL     1       5.625  -1.010  -1.057  1.00  0.00    -0.327 N 
HETATM   32  C12 UNL     1       7.026  -1.301  -0.977  1.00  0.00     0.222 C 
HETATM   33  H9  UNL     1       5.069  -1.687  -1.628  1.00  0.00     0.169 HD
HETATM   34  O2  UNL     1       7.394  -2.504  -0.913  1.00  0.00    -0.273 OA
HETATM   35  C13 UNL     1       8.074  -0.239  -1.139  1.00  0.00     0.103 C 
HETATM   36  C14 UNL     1       7.638   1.130  -0.623  1.00  0.00     0.014 C 
ENDBRANCH   6  24
TORSDOF 2
