REMARK  4 active torsions:
REMARK  status: ('A' for Active; 'I' for Inactive)
REMARK    1  A    between atoms: C3_3  and  N1_4 
REMARK    2  A    between atoms: C12_17  and  C13_18 
REMARK    3  A    between atoms: C13_18  and  C14_19 
REMARK    4  A    between atoms: C14_19  and  C15_21 
ROOT
HETATM    1  N1  UNL     1      -1.910   0.750  -0.214  1.00  0.00    -0.404 N 
HETATM    2  C4  UNL     1      -3.169  -0.010  -0.189  1.00  0.00     0.147 C 
HETATM    3  C5  UNL     1      -2.881  -1.511   0.026  1.00  0.00     0.292 C 
HETATM    4  N2  UNL     1      -1.558  -1.736   0.665  1.00  0.00     0.099 N 
HETATM    5  C6  UNL     1      -1.618  -1.254   2.065  1.00  0.00     0.311 C 
HETATM    6  C7  UNL     1      -0.406  -1.252  -0.191  1.00  0.00     0.195 C 
HETATM    7  C8  UNL     1      -0.158  -2.286  -1.359  1.00  0.00     0.048 C 
HETATM    8  C9  UNL     1       0.396  -3.686  -1.035  1.00  0.00     0.029 C 
HETATM    9  C10 UNL     1      -0.348  -4.448   0.065  1.00  0.00     0.180 C 
HETATM   10  O1  UNL     1      -0.197  -3.883   1.367  1.00  0.00    -0.304 OA
HETATM   11  C11 UNL     1       0.978  -3.299   1.843  1.00  0.00     0.360 C 
HETATM   12  O2  UNL     1       1.487  -3.731   2.911  1.00  0.00    -0.239 OA
HETATM   13  N3  UNL     1       1.627  -2.232   1.138  1.00  0.00    -0.329 N 
HETATM   14  C12 UNL     1       0.988  -1.029   0.565  1.00  0.00     0.134 C 
HETATM   15  C21 UNL     1      -0.806   0.094  -0.916  1.00  0.00     0.161 C 
HETATM   16  H19 UNL     1       2.664  -2.185   1.250  1.00  0.00     0.165 HD
ENDROOT
BRANCH  14  17
HETATM   17  C13 UNL     1       1.067   0.140   1.590  1.00  0.00     0.111 C 
BRANCH  17  18
HETATM   18  C14 UNL     1       2.473   0.681   1.707  1.00  0.00     0.161 C 
HETATM   19  O3  UNL     1       3.196   0.255   2.650  1.00  0.00    -0.292 OA
BRANCH  18  20
HETATM   20  C15 UNL     1       3.062   1.618   0.715  1.00  0.00     0.010 A 
HETATM   21  C16 UNL     1       2.262   2.476  -0.066  1.00  0.00     0.015 A 
HETATM   22  C17 UNL     1       2.846   3.334  -1.001  1.00  0.00     0.001 A 
HETATM   23  C18 UNL     1       4.232   3.363  -1.161  1.00  0.00     0.000 A 
HETATM   24  C19 UNL     1       5.039   2.530  -0.383  1.00  0.00     0.001 A 
HETATM   25  C20 UNL     1       4.461   1.663   0.550  1.00  0.00     0.015 A 
ENDBRANCH  18  20
ENDBRANCH  17  18
ENDBRANCH  14  17
BRANCH   1  26
HETATM   26  C3  UNL     1      -1.915   2.227  -0.136  1.00  0.00     0.083 A 
HETATM   27  C2  UNL     1      -1.925   3.025  -1.447  1.00  0.00     0.006 A 
HETATM   28  C1  UNL     1      -2.065   2.326  -2.802  1.00  0.00     0.012 C 
HETATM   29  C22 UNL     1      -3.184   2.955  -0.587  1.00  0.00     0.031 A 
ENDBRANCH   1  26
TORSDOF 4
