REMARK  1 active torsions:
REMARK  status: ('A' for Active; 'I' for Inactive)
REMARK    1  A    between atoms: C5_7  and  C6_8 
REMARK       I    between atoms: C6_8  and  N2_10 
ROOT
HETATM    1  C6  UNL     1      -1.764  -0.878  -0.319  1.00  0.00     0.271 C 
HETATM    2  O1  UNL     1      -1.979  -2.027   0.153  1.00  0.00    -0.266 OA
HETATM    3  N2  UNL     1      -0.488  -0.590  -0.934  1.00  0.00    -0.337 N 
HETATM    4  C7  UNL     1      -0.032   0.757  -1.316  1.00  0.00     0.088 C 
HETATM    5  C8  UNL     1       1.074   0.543  -2.363  1.00  0.00     0.027 C 
HETATM    6  C9  UNL     1       1.167  -0.980  -2.595  1.00  0.00     0.027 C 
HETATM    7  C10 UNL     1       0.357  -1.661  -1.473  1.00  0.00     0.088 C 
HETATM    8  C11 UNL     1       1.263  -2.308  -0.360  1.00  0.00     0.030 C 
HETATM    9  C12 UNL     1       1.952  -1.202   0.439  1.00  0.00    -0.012 C 
HETATM   10  C13 UNL     1       1.109  -0.597   1.552  1.00  0.00     0.009 C 
HETATM   11  C14 UNL     1       1.901   0.649   1.819  1.00  0.00    -0.014 C 
HETATM   12  C15 UNL     1       1.677   1.717   0.671  1.00  0.00     0.007 C 
HETATM   13  C16 UNL     1       0.295   1.726  -0.097  1.00  0.00     0.026 C 
HETATM   14  C17 UNL     1       3.308  -1.294   1.100  1.00  0.00     0.005 C 
HETATM   15  C18 UNL     1       3.356   0.071   1.853  1.00  0.00     0.005 C 
ENDROOT
BRANCH   1  16
HETATM   16  C5  UNL     1      -2.821   0.142  -0.192  1.00  0.00     0.104 A 
HETATM   17  N1  UNL     1      -3.451   0.454   0.963  1.00  0.00    -0.355 N 
HETATM   18  C1  UNL     1      -3.195  -0.107   2.287  1.00  0.00     0.156 C 
HETATM   19  C2  UNL     1      -4.406   1.357   0.665  1.00  0.00     0.114 A 
HETATM   20  C3  UNL     1      -4.383   1.618  -0.688  1.00  0.00     0.051 A 
HETATM   21 CL1  UNL     1      -5.456   2.698  -1.554  1.00  0.00    -0.083 Cl
HETATM   22  C4  UNL     1      -3.385   0.843  -1.243  1.00  0.00     0.060 A 
ENDBRANCH   1  16
TORSDOF 1
