REMARK  7 active torsions:
REMARK  status: ('A' for Active; 'I' for Inactive)
REMARK       I    between atoms: C1_2  and  N1_3 
REMARK    1  A    between atoms: C1_2  and  C12_18 
REMARK       I    between atoms: N1_3  and  C2_4 
REMARK    2  A    between atoms: C2_4  and  C3_6 
REMARK    3  A    between atoms: C14_20  and  C41_48 
REMARK    4  A    between atoms: C15_21  and  C18_25 
REMARK    5  A    between atoms: C23_30  and  C24_31 
REMARK    6  A    between atoms: C29_36  and  C30_37 
REMARK    7  A    between atoms: C35_42  and  C36_43 
ROOT
HETATM    1  C12 UNL     1       0.829   0.297  -0.783  1.00  0.00     0.071 A 
HETATM    2  C13 UNL     1      -0.049  -0.792  -0.912  1.00  0.00     0.033 A 
HETATM    3  C14 UNL     1      -1.148  -0.937  -0.049  1.00  0.00    -0.013 A 
HETATM    4  C15 UNL     1      -1.316  -0.020   1.018  1.00  0.00    -0.011 A 
HETATM    5  C16 UNL     1      -0.451   1.076   1.132  1.00  0.00     0.056 A 
HETATM    6  C17 UNL     1       0.609   1.240   0.239  1.00  0.00     0.133 A 
HETATM    7  F2  UNL     1       1.388   2.345   0.348  1.00  0.00    -0.205 F 
ENDROOT
BRANCH   1   8
HETATM    8  C1  UNL     1       1.961   0.436  -1.727  1.00  0.00     0.261 C 
HETATM    9  O1  UNL     1       1.811   0.068  -2.924  1.00  0.00    -0.267 OA
HETATM   10  N1  UNL     1       3.233   0.933  -1.279  1.00  0.00    -0.289 N 
HETATM   11  C2  UNL     1       4.321   1.245  -2.168  1.00  0.00     0.262 C 
HETATM   12  H1  UNL     1       3.391   1.023  -0.251  1.00  0.00     0.172 HD
HETATM   13  O2  UNL     1       4.105   1.365  -3.405  1.00  0.00    -0.267 OA
BRANCH  11  14
HETATM   14  C3  UNL     1       5.695   1.452  -1.638  1.00  0.00     0.086 C 
HETATM   15  C4  UNL     1       6.595   2.190  -2.351  1.00  0.00     0.136 C 
HETATM   16  N2  UNL     1       8.002   2.430  -2.036  1.00  0.00    -0.269 NA
HETATM   17  C5  UNL     1       8.745   2.130  -0.998  1.00  0.00     0.153 C 
HETATM   18  C6  UNL     1       8.196   1.446   0.167  1.00  0.00     0.093 C 
HETATM   19  C7  UNL     1       8.791   0.407   0.756  1.00  0.00     0.039 C 
HETATM   20  O3  UNL     1       6.879   1.676   0.439  1.00  0.00    -0.305 OA
HETATM   21  C8  UNL     1       7.979  -0.616   1.477  1.00  0.00     0.006 C 
HETATM   22  C9  UNL     1       6.706  -0.970   1.154  1.00  0.00     0.045 C 
HETATM   23  C10 UNL     1       5.904  -0.387   0.035  1.00  0.00     0.151 C 
HETATM   24  F1  UNL     1       5.118  -1.217  -0.695  1.00  0.00    -0.203 F 
HETATM   25  C11 UNL     1       6.066   0.896  -0.328  1.00  0.00     0.131 C 
ENDBRANCH  11  14
ENDBRANCH   1   8
BRANCH   3  26
HETATM   26  C41 UNL     1      -1.936  -2.096  -0.102  1.00  0.00    -0.014 C 
HETATM   27  C36 UNL     1      -3.368  -2.055  -0.067  1.00  0.00    -0.014 C 
HETATM   28  C37 UNL     1      -4.016  -3.084   0.666  1.00  0.00     0.013 C 
HETATM   29  C38 UNL     1      -3.326  -4.211   1.106  1.00  0.00     0.001 C 
HETATM   30  C39 UNL     1      -1.969  -4.342   0.842  1.00  0.00     0.001 C 
HETATM   31  C40 UNL     1      -1.273  -3.289   0.257  1.00  0.00     0.013 C 
BRANCH  27  32
HETATM   32  C35 UNL     1      -4.145  -1.248  -0.974  1.00  0.00    -0.014 C 
HETATM   33  C30 UNL     1      -3.721   0.009  -1.552  1.00  0.00    -0.014 C 
HETATM   34  C31 UNL     1      -4.139   0.279  -2.889  1.00  0.00     0.013 C 
HETATM   35  C32 UNL     1      -5.108  -0.483  -3.525  1.00  0.00     0.001 C 
HETATM   36  C33 UNL     1      -5.703  -1.534  -2.859  1.00  0.00     0.001 C 
HETATM   37  C34 UNL     1      -5.233  -1.916  -1.610  1.00  0.00     0.013 C 
BRANCH  33  38
HETATM   38  C29 UNL     1      -3.239   1.147  -0.813  1.00  0.00    -0.014 C 
HETATM   39  C24 UNL     1      -3.689   1.456   0.513  1.00  0.00    -0.014 C 
HETATM   40  C25 UNL     1      -3.759   2.806   0.916  1.00  0.00     0.013 C 
HETATM   41  C26 UNL     1      -3.199   3.813   0.136  1.00  0.00     0.001 C 
HETATM   42  C27 UNL     1      -2.536   3.488  -1.040  1.00  0.00     0.001 C 
HETATM   43  C28 UNL     1      -2.550   2.175  -1.508  1.00  0.00     0.013 C 
BRANCH  39  44
HETATM   44  C23 UNL     1      -3.644   0.524   1.559  1.00  0.00    -0.014 A 
HETATM   45  C18 UNL     1      -2.421  -0.121   1.878  1.00  0.00    -0.014 A 
HETATM   46  C19 UNL     1      -2.347  -0.959   3.003  1.00  0.00     0.013 A 
HETATM   47  C20 UNL     1      -3.456  -1.117   3.836  1.00  0.00     0.001 A 
HETATM   48  C21 UNL     1      -4.644  -0.438   3.559  1.00  0.00     0.001 A 
HETATM   49  C22 UNL     1      -4.733   0.394   2.440  1.00  0.00     0.013 A 
ENDBRANCH  39  44
ENDBRANCH  33  38
ENDBRANCH  27  32
ENDBRANCH   3  26
TORSDOF 7
