REMARK  6 active torsions:
REMARK  status: ('A' for Active; 'I' for Inactive)
REMARK    1  A    between atoms: C1_2  and  C2_3 
REMARK    2  A    between atoms: C1_2  and  C22_24 
REMARK    3  A    between atoms: C24_26  and  C45_47 
REMARK    4  A    between atoms: C25_27  and  C28_30 
REMARK    5  A    between atoms: C33_35  and  C34_36 
REMARK    6  A    between atoms: C39_41  and  C40_42 
ROOT
HETATM    1  C22 UNL     1       0.834  -0.338   0.333  1.00  0.00     0.016 A 
HETATM    2  C23 UNL     1       2.094  -0.679   0.844  1.00  0.00     0.028 A 
HETATM    3  C24 UNL     1       3.197   0.170   0.660  1.00  0.00    -0.013 A 
HETATM    4  C25 UNL     1       3.042   1.370  -0.068  1.00  0.00    -0.014 A 
HETATM    5  C26 UNL     1       1.779   1.705  -0.580  1.00  0.00     0.014 A 
HETATM    6  C27 UNL     1       0.685   0.858  -0.384  1.00  0.00     0.016 A 
ENDROOT
BRANCH   1   7
HETATM    7  C1  UNL     1      -0.313  -1.252   0.534  1.00  0.00     0.192 C 
HETATM    8  O1  UNL     1      -0.117  -2.497   0.439  1.00  0.00    -0.287 OA
BRANCH   7   9
HETATM    9  C2  UNL     1      -1.672  -0.758   0.869  1.00  0.00     0.016 A 
HETATM   10  C3  UNL     1      -2.797  -1.541   0.573  1.00  0.00     0.028 A 
HETATM   11  C4  UNL     1      -4.092  -1.125   0.932  1.00  0.00    -0.010 A 
HETATM   12  C5  UNL     1      -4.265   0.116   1.604  1.00  0.00     0.021 A 
HETATM   13  C21 UNL     1      -5.204  -2.069   0.650  1.00  0.00    -0.014 A 
HETATM   14  C6  UNL     1      -3.129   0.884   1.908  1.00  0.00     0.017 A 
HETATM   15  C8  UNL     1      -5.586   0.640   2.048  1.00  0.00     0.164 C 
HETATM   16  C7  UNL     1      -1.852   0.456   1.547  1.00  0.00     0.016 A 
HETATM   17  O2  UNL     1      -5.666   1.201   3.176  1.00  0.00    -0.292 OA
HETATM   18  C9  UNL     1      -6.835   0.555   1.217  1.00  0.00     0.123 C 
HETATM   19  C10 UNL     1      -6.540   0.656  -0.264  1.00  0.00    -0.040 A 
HETATM   20  C11 UNL     1      -6.550   1.913  -0.891  1.00  0.00     0.008 A 
HETATM   21  C15 UNL     1      -6.235  -0.495  -1.024  1.00  0.00    -0.018 A 
HETATM   22  C12 UNL     1      -6.318   2.017  -2.266  1.00  0.00     0.001 A 
HETATM   23  C13 UNL     1      -6.061   0.871  -3.024  1.00  0.00     0.001 A 
HETATM   24  C14 UNL     1      -6.016  -0.382  -2.407  1.00  0.00     0.013 A 
HETATM   25  C16 UNL     1      -6.153  -1.817  -0.371  1.00  0.00    -0.014 A 
HETATM   26  C17 UNL     1      -7.083  -2.811  -0.716  1.00  0.00     0.013 A 
HETATM   27  C18 UNL     1      -7.078  -4.042  -0.055  1.00  0.00     0.001 A 
HETATM   28  C19 UNL     1      -6.146  -4.293   0.954  1.00  0.00     0.001 A 
HETATM   29  C20 UNL     1      -5.208  -3.317   1.299  1.00  0.00     0.013 A 
ENDBRANCH   7   9
ENDBRANCH   1   7
BRANCH   3  30
HETATM   30  C45 UNL     1       4.490  -0.195   1.284  1.00  0.00    -0.014 A 
HETATM   31  C40 UNL     1       5.614  -0.553   0.505  1.00  0.00    -0.014 A 
HETATM   32  C41 UNL     1       6.804  -0.939   1.145  1.00  0.00     0.013 A 
HETATM   33  C42 UNL     1       6.884  -0.959   2.540  1.00  0.00     0.001 A 
HETATM   34  C43 UNL     1       5.774  -0.605   3.309  1.00  0.00     0.001 A 
HETATM   35  C44 UNL     1       4.581  -0.231   2.687  1.00  0.00     0.013 A 
BRANCH  31  36
HETATM   36  C39 UNL     1       5.550  -0.571  -0.974  1.00  0.00    -0.014 A 
HETATM   37  C34 UNL     1       5.390   0.618  -1.720  1.00  0.00    -0.014 A 
HETATM   38  C35 UNL     1       5.370   0.556  -3.124  1.00  0.00     0.013 A 
HETATM   39  C36 UNL     1       5.494  -0.671  -3.780  1.00  0.00     0.001 A 
HETATM   40  C37 UNL     1       5.647  -1.846  -3.044  1.00  0.00     0.001 A 
HETATM   41  C38 UNL     1       5.681  -1.798  -1.648  1.00  0.00     0.013 A 
BRANCH  37  42
HETATM   42  C33 UNL     1       5.296   1.941  -1.060  1.00  0.00    -0.014 A 
HETATM   43  C28 UNL     1       4.175   2.302  -0.277  1.00  0.00    -0.014 A 
HETATM   44  C29 UNL     1       4.109   3.587   0.287  1.00  0.00     0.013 A 
HETATM   45  C30 UNL     1       5.148   4.500   0.087  1.00  0.00     0.001 A 
HETATM   46  C31 UNL     1       6.254   4.146  -0.687  1.00  0.00     0.001 A 
HETATM   47  C32 UNL     1       6.329   2.875  -1.260  1.00  0.00     0.013 A 
ENDBRANCH  37  42
ENDBRANCH  31  36
ENDBRANCH   3  30
TORSDOF 6
