REMARK  2 active torsions:
REMARK  status: ('A' for Active; 'I' for Inactive)
REMARK    1  A    between atoms: C5_6  and  C6_7 
REMARK    2  A    between atoms: C7_10  and  C8_11 
ROOT
HETATM    1  C6  UNL     1       1.621   0.143  -0.615  1.00  0.00     0.112 A 
HETATM    2  N2  UNL     1       1.877  -1.184  -0.546  1.00  0.00    -0.146 NA
HETATM    3  N3  UNL     1       0.787  -1.925  -0.353  1.00  0.00    -0.146 NA
HETATM    4  C7  UNL     1      -0.348  -1.197  -0.257  1.00  0.00     0.103 A 
HETATM    5  S1  UNL     1      -0.021   0.453  -0.404  1.00  0.00    -0.055 SA
ENDROOT
BRANCH   4   6
HETATM    6  C8  UNL     1      -1.704  -1.809  -0.017  1.00  0.00     0.051 C 
HETATM    7  C9  UNL     1      -2.298  -1.332   1.319  1.00  0.00     0.021 C 
HETATM    8  C10 UNL     1      -3.289  -0.202   0.990  1.00  0.00     0.017 C 
HETATM    9  C11 UNL     1      -4.589  -0.295   1.828  1.00  0.00     0.014 C 
HETATM   10  C15 UNL     1      -3.510  -0.319  -0.484  1.00  0.00    -0.058 C 
HETATM   11  C12 UNL     1      -5.814   0.402   1.213  1.00  0.00     0.047 C 
HETATM   12  C13 UNL     1      -5.486   1.693   0.516  1.00  0.00     0.089 C 
HETATM   13  N4  UNL     1      -4.823   1.724  -0.603  1.00  0.00    -0.277 NA
HETATM   14  C14 UNL     1      -4.177   0.592  -1.209  1.00  0.00     0.119 C 
HETATM   15  C16 UNL     1      -2.704  -1.403  -1.105  1.00  0.00     0.047 C 
ENDBRANCH   4   6
BRANCH   1  16
HETATM   16  C5  UNL     1       2.677   1.205  -0.758  1.00  0.00     0.139 C 
HETATM   17  C4  UNL     1       3.217   1.636   0.616  1.00  0.00     0.022 C 
HETATM   18  C3  UNL     1       4.198   0.610   1.187  1.00  0.00     0.021 C 
HETATM   19  C2  UNL     1       5.405   0.452   0.261  1.00  0.00     0.125 C 
HETATM   20  N1  UNL     1       4.999   0.169  -1.122  1.00  0.00    -0.356 N 
HETATM   21  C1  UNL     1       5.933  -0.519  -2.017  1.00  0.00     0.152 C 
HETATM   22  C17 UNL     1       3.783   0.727  -1.664  1.00  0.00     0.230 C 
HETATM   23  O1  UNL     1       3.601   0.754  -2.912  1.00  0.00    -0.273 OA
ENDBRANCH   1  16
TORSDOF 2
