REMARK  5 active torsions:
REMARK  status: ('A' for Active; 'I' for Inactive)
REMARK    1  A    between atoms: N1_1  and  C1_2 
REMARK    2  A    between atoms: C3_4  and  O1_5 
REMARK    3  A    between atoms: C6_10  and  C7_11 
REMARK    4  A    between atoms: C10_14  and  C11_15 
REMARK    5  A    between atoms: C16_23  and  C17_24 
ROOT
HETATM    1  C1  UNL     1      -2.339   0.108   1.113  1.00  0.00     0.238 C 
HETATM    2  C2  UNL     1      -1.821  -1.309   0.803  1.00  0.00     0.056 C 
HETATM    3  C3  UNL     1      -2.480  -1.664  -0.537  1.00  0.00     0.144 C 
HETATM    4  C4  UNL     1      -2.450  -0.354  -1.314  1.00  0.00     0.100 C 
HETATM    5  C5  UNL     1      -1.236  -0.318  -2.194  1.00  0.00     0.232 C 
HETATM    6  O2  UNL     1      -1.313   0.241  -3.319  1.00  0.00    -0.273 OA
HETATM    7  N2  UNL     1      -0.021  -0.977  -1.812  1.00  0.00    -0.346 N 
HETATM    8  C6  UNL     1       0.549  -0.961  -0.459  1.00  0.00     0.065 A 
HETATM    9  C14 UNL     1       0.550  -2.368   0.161  1.00  0.00     0.044 A 
HETATM   10  C15 UNL     1      -0.265  -1.261   0.814  1.00  0.00     0.030 A 
HETATM   11  C16 UNL     1      -2.438   0.788  -0.279  1.00  0.00     0.148 C 
HETATM   12  H7  UNL     1       0.602  -1.313  -2.579  1.00  0.00     0.163 HD
ENDROOT
BRANCH   8  13
HETATM   13  C7  UNL     1       1.826  -0.184  -0.297  1.00  0.00    -0.030 A 
HETATM   14  C8  UNL     1       3.040  -0.698  -0.776  1.00  0.00     0.010 A 
HETATM   15  C9  UNL     1       4.217   0.045  -0.653  1.00  0.00     0.017 A 
HETATM   16  C10 UNL     1       4.194   1.328  -0.078  1.00  0.00     0.047 A 
HETATM   17  C12 UNL     1       2.976   1.835   0.408  1.00  0.00     0.017 A 
HETATM   18  C13 UNL     1       1.799   1.091   0.284  1.00  0.00     0.010 A 
BRANCH  16  19
HETATM   19  C11 UNL     1       5.472   2.109   0.099  1.00  0.00     0.417 C 
HETATM   20  F1  UNL     1       5.221   3.470   0.069  1.00  0.00    -0.166 F 
HETATM   21  F2  UNL     1       6.370   1.813  -0.911  1.00  0.00    -0.166 F 
HETATM   22  F3  UNL     1       6.039   1.782   1.317  1.00  0.00    -0.166 F 
ENDBRANCH  16  19
ENDBRANCH   8  13
BRANCH   1  23
HETATM   23  N1  UNL     1      -3.600   0.039   1.864  1.00  0.00     0.084 N 
HETATM   24  H1  UNL     1      -4.375  -0.345   1.283  1.00  0.00     0.313 HD
HETATM   25  H2  UNL     1      -3.869   0.995   2.187  1.00  0.00     0.313 HD
ENDBRANCH   1  23
BRANCH   3  26
HETATM   26  O1  UNL     1      -3.817  -2.049  -0.354  1.00  0.00    -0.394 OA
HETATM   27  H6  UNL     1      -3.801  -2.962   0.037  1.00  0.00     0.210 HD
ENDBRANCH   3  26
BRANCH  11  28
HETATM   28  C17 UNL     1      -3.603   1.767  -0.513  1.00  0.00     0.394 C 
HETATM   29  F4  UNL     1      -4.822   1.112  -0.535  1.00  0.00    -0.171 F 
HETATM   30  F5  UNL     1      -3.429   2.394  -1.735  1.00  0.00    -0.171 F 
HETATM   31  F6  UNL     1      -3.617   2.739   0.471  1.00  0.00    -0.171 F 
ENDBRANCH  11  28
TORSDOF 5
