REMARK  2 active torsions:
REMARK  status: ('A' for Active; 'I' for Inactive)
REMARK    1  A    between atoms: C5_5  and  C6_6 
REMARK    2  A    between atoms: C12_12  and  C13_13 
ROOT
HETATM    1  C13 UNL     1      -0.540   1.249  -0.246  1.00  0.00    -0.006 A 
HETATM    2  C14 UNL     1       0.265   1.699  -1.299  1.00  0.00     0.014 A 
HETATM    3  C15 UNL     1       1.617   1.354  -1.350  1.00  0.00     0.014 A 
HETATM    4  C16 UNL     1       2.194   0.559  -0.344  1.00  0.00    -0.017 A 
HETATM    5  C17 UNL     1       1.396   0.144   0.745  1.00  0.00    -0.046 A 
HETATM    6  C18 UNL     1       0.038   0.498   0.788  1.00  0.00     0.022 A 
HETATM    7  C19 UNL     1       1.967  -0.733   1.826  1.00  0.00     0.047 C 
HETATM    8  C20 UNL     1       2.161  -2.157   1.302  1.00  0.00     0.088 C 
HETATM    9  C21 UNL     1       3.125  -2.262   0.147  1.00  0.00     0.160 C 
HETATM   10  O1  UNL     1       3.198  -3.362  -0.465  1.00  0.00    -0.292 OA
HETATM   11  C22 UNL     1       4.057  -1.172  -0.232  1.00  0.00     0.024 A 
HETATM   12  C23 UNL     1       5.411  -1.491  -0.422  1.00  0.00     0.035 A 
HETATM   13  C24 UNL     1       6.315  -0.496  -0.789  1.00  0.00     0.117 A 
HETATM   14  N1  UNL     1       5.887   0.778  -0.974  1.00  0.00    -0.272 NA
HETATM   15  C25 UNL     1       4.583   1.123  -0.818  1.00  0.00     0.129 A 
HETATM   16  C26 UNL     1       3.625   0.160  -0.451  1.00  0.00     0.006 A 
ENDROOT
BRANCH   1  17
HETATM   17  C12 UNL     1      -1.986   1.567  -0.236  1.00  0.00     0.078 A 
HETATM   18  C5  UNL     1      -2.981   0.582  -0.009  1.00  0.00     0.004 A 
HETATM   19  C4  UNL     1      -4.323   0.989   0.053  1.00  0.00     0.017 A 
HETATM   20  C3  UNL     1      -4.665   2.326  -0.141  1.00  0.00     0.027 A 
HETATM   21  C2  UNL     1      -3.660   3.260  -0.405  1.00  0.00     0.031 A 
HETATM   22  C1  UNL     1      -4.001   4.702  -0.612  1.00  0.00     0.070 C 
HETATM   23  N2  UNL     1      -2.360   2.862  -0.436  1.00  0.00    -0.252 NA
BRANCH  18  24
HETATM   24  C6  UNL     1      -2.660  -0.860   0.119  1.00  0.00    -0.024 A 
HETATM   25  C7  UNL     1      -1.900  -1.514  -0.868  1.00  0.00     0.012 A 
HETATM   26  C8  UNL     1      -1.567  -2.864  -0.724  1.00  0.00     0.001 A 
HETATM   27  C9  UNL     1      -2.001  -3.576   0.398  1.00  0.00     0.000 A 
HETATM   28  C10 UNL     1      -2.772  -2.939   1.374  1.00  0.00     0.001 A 
HETATM   29  C11 UNL     1      -3.105  -1.588   1.235  1.00  0.00     0.012 A 
ENDBRANCH  18  24
ENDBRANCH   1  17
TORSDOF 2
