REMARK  2 active torsions:
REMARK  status: ('A' for Active; 'I' for Inactive)
REMARK    1  A    between atoms: C1_2  and  C2_3 
REMARK    2  A    between atoms: C1_2  and  C16_20 
ROOT
HETATM    1  C2  UNL     1      -0.035  -0.556   0.475  1.00  0.00     0.054 A 
HETATM    2  C3  UNL     1      -1.272  -0.907  -0.087  1.00  0.00     0.031 A 
HETATM    3  C4  UNL     1      -2.456  -0.240   0.282  1.00  0.00    -0.016 A 
HETATM    4  C5  UNL     1      -2.388   0.795   1.242  1.00  0.00    -0.035 A 
HETATM    5  C6  UNL     1      -1.151   1.135   1.813  1.00  0.00     0.051 A 
HETATM    6  C7  UNL     1       0.014   0.461   1.444  1.00  0.00     0.131 A 
HETATM    7  F1  UNL     1       1.182   0.785   2.054  1.00  0.00    -0.205 F 
HETATM    8  C8  UNL     1      -3.615   1.569   1.626  1.00  0.00     0.142 C 
HETATM    9  C9  UNL     1      -4.064   2.359   0.440  1.00  0.00     0.226 C 
HETATM   10  O2  UNL     1      -4.047   3.618   0.489  1.00  0.00    -0.273 OA
HETATM   11  N1  UNL     1      -4.493   1.703  -0.759  1.00  0.00    -0.326 N 
HETATM   12  C10 UNL     1      -4.687   0.281  -0.855  1.00  0.00     0.045 A 
HETATM   13  C11 UNL     1      -5.835  -0.185  -1.515  1.00  0.00     0.030 A 
HETATM   14  C12 UNL     1      -6.087  -1.552  -1.630  1.00  0.00     0.002 A 
HETATM   15  C13 UNL     1      -5.191  -2.473  -1.094  1.00  0.00     0.001 A 
HETATM   16  C14 UNL     1      -4.031  -2.031  -0.456  1.00  0.00     0.014 A 
HETATM   17  C15 UNL     1      -3.750  -0.655  -0.338  1.00  0.00     0.001 A 
HETATM   18  H5  UNL     1      -4.873   2.305  -1.524  1.00  0.00     0.169 HD
ENDROOT
BRANCH   1  19
HETATM   19  C1  UNL     1       1.187  -1.284   0.063  1.00  0.00     0.195 C 
HETATM   20  O1  UNL     1       1.124  -2.535  -0.086  1.00  0.00    -0.287 OA
BRANCH  19  21
HETATM   21  C16 UNL     1       2.473  -0.591  -0.196  1.00  0.00     0.016 A 
HETATM   22  C17 UNL     1       2.495   0.739  -0.654  1.00  0.00     0.016 A 
HETATM   23  C18 UNL     1       3.708   1.384  -0.911  1.00  0.00     0.013 A 
HETATM   24  C19 UNL     1       4.920   0.707  -0.724  1.00  0.00    -0.026 A 
HETATM   25  C20 UNL     1       6.144   1.347  -0.979  1.00  0.00     0.012 A 
HETATM   26  C24 UNL     1       4.911  -0.636  -0.277  1.00  0.00    -0.025 A 
HETATM   27  C21 UNL     1       7.346   0.660  -0.792  1.00  0.00     0.001 A 
HETATM   28  C22 UNL     1       7.338  -0.666  -0.351  1.00  0.00     0.001 A 
HETATM   29  C23 UNL     1       6.126  -1.314  -0.094  1.00  0.00     0.012 A 
HETATM   30  C25 UNL     1       3.688  -1.276  -0.022  1.00  0.00     0.028 A 
ENDBRANCH  19  21
ENDBRANCH   1  19
TORSDOF 2
