REMARK  5 active torsions:
REMARK  status: ('A' for Active; 'I' for Inactive)
REMARK    1  A    between atoms: N1_2  and  C3_4 
REMARK    2  A    between atoms: C4_6  and  C5_7 
REMARK    3  A    between atoms: C5_7  and  N3_8 
REMARK    4  A    between atoms: N4_12  and  C9_13 
REMARK    5  A    between atoms: C22_28  and  N5_29 
ROOT
HETATM    1  N3  UNL     1      -0.754  -1.875   1.275  1.00  0.00    -0.345 N 
HETATM    2  C6  UNL     1      -0.533  -2.587   0.008  1.00  0.00     0.128 C 
HETATM    3  C7  UNL     1       0.726  -3.463   0.067  1.00  0.00     0.040 C 
HETATM    4  C8  UNL     1       1.992  -2.692  -0.347  1.00  0.00     0.125 C 
HETATM    5  N4  UNL     1       2.108  -1.385   0.318  1.00  0.00    -0.372 N 
HETATM    6  C19 UNL     1       1.676  -1.200   1.705  1.00  0.00     0.225 C 
HETATM    7  C20 UNL     1       0.205  -0.913   1.754  1.00  0.00     0.237 C 
HETATM    8  O1  UNL     1      -0.192   0.169   2.266  1.00  0.00    -0.272 OA
ENDROOT
BRANCH   1   9
HETATM    9  C5  UNL     1      -2.045  -2.009   1.960  1.00  0.00     0.185 C 
BRANCH   9  10
HETATM   10  C4  UNL     1      -3.115  -1.284   1.199  1.00  0.00     0.075 A 
HETATM   11  N2  UNL     1      -3.160   0.074   1.236  1.00  0.00    -0.066 NA
HETATM   12  C3  UNL     1      -4.094   0.773   0.534  1.00  0.00     0.726 A 
HETATM   13  N6  UNL     1      -5.002   0.099  -0.225  1.00  0.00    -0.046 NA
HETATM   14  C22 UNL     1      -4.994  -1.258  -0.300  1.00  0.00     0.142 A 
HETATM   15  C21 UNL     1      -4.037  -1.984   0.413  1.00  0.00     0.080 A 
BRANCH  12  16
HETATM   16  N1  UNL     1      -4.121   2.212   0.594  1.00  0.00    -0.223 N 
HETATM   17  C1  UNL     1      -3.115   2.924   1.389  1.00  0.00     0.168 C 
HETATM   18  C2  UNL     1      -5.075   2.958  -0.228  1.00  0.00     0.168 C 
ENDBRANCH  12  16
BRANCH  14  19
HETATM   19  N5  UNL     1      -5.968  -1.928  -1.102  1.00  0.00    -0.383 N 
HETATM   20  H24 UNL     1      -6.708  -1.379  -1.592  1.00  0.00     0.157 HD
HETATM   21  H25 UNL     1      -5.986  -2.970  -1.167  1.00  0.00     0.157 HD
ENDBRANCH  14  19
ENDBRANCH   9  10
ENDBRANCH   1   9
BRANCH   5  22
HETATM   22  C9  UNL     1       2.782  -0.313  -0.361  1.00  0.00     0.031 A 
HETATM   23  C10 UNL     1       2.226   0.244  -1.522  1.00  0.00     0.030 A 
HETATM   24  C11 UNL     1       2.871   1.289  -2.184  1.00  0.00     0.014 A 
HETATM   25  C12 UNL     1       4.084   1.792  -1.693  1.00  0.00    -0.023 A 
HETATM   26  C13 UNL     1       4.731   2.850  -2.348  1.00  0.00     0.012 A 
HETATM   27  C17 UNL     1       4.660   1.230  -0.527  1.00  0.00     0.015 A 
HETATM   28  C14 UNL     1       5.936   3.350  -1.850  1.00  0.00     0.004 A 
HETATM   29  C15 UNL     1       6.508   2.796  -0.703  1.00  0.00     0.043 A 
HETATM   30  C16 UNL     1       5.880   1.737  -0.042  1.00  0.00     0.127 A 
HETATM   31  F1  UNL     1       6.462   1.212   1.067  1.00  0.00    -0.205 F 
HETATM   32  C18 UNL     1       4.000   0.177   0.130  1.00  0.00     0.044 A 
ENDBRANCH   5  22
TORSDOF 5
