REMARK  3 active torsions:
REMARK  status: ('A' for Active; 'I' for Inactive)
REMARK    1  A    between atoms: O1_2  and  C2_3 
REMARK    2  A    between atoms: C10_11  and  N1_12 
REMARK    3  A    between atoms: N1_12  and  C12_14 
ROOT
HETATM    1  C12 UNL     1      -0.066  -1.731  -1.102  1.00  0.00     0.033 A 
HETATM    2  C13 UNL     1      -0.491  -1.244  -2.343  1.00  0.00     0.030 A 
HETATM    3  C14 UNL     1      -1.318  -0.123  -2.415  1.00  0.00     0.014 A 
HETATM    4  C15 UNL     1      -1.736   0.535  -1.246  1.00  0.00     0.004 A 
HETATM    5  C16 UNL     1      -1.310   0.052   0.013  1.00  0.00     0.089 A 
HETATM    6  C17 UNL     1      -0.487  -1.081   0.068  1.00  0.00     0.067 A 
HETATM    7  O2  UNL     1      -1.621   0.667   1.238  1.00  0.00    -0.276 OA
HETATM    8  C18 UNL     1      -2.469   1.758   1.485  1.00  0.00     0.302 C 
HETATM    9  O3  UNL     1      -2.151   2.533   2.426  1.00  0.00    -0.262 OA
HETATM   10  C19 UNL     1      -3.830   1.937   0.813  1.00  0.00     0.237 C 
HETATM   11  C20 UNL     1      -4.230   3.435   0.799  1.00  0.00     0.060 C 
HETATM   12  C21 UNL     1      -4.861   1.160   1.646  1.00  0.00     0.060 C 
HETATM   13  N2  UNL     1      -3.862   1.393  -0.559  1.00  0.00     0.106 N 
HETATM   14  C22 UNL     1      -2.667   1.700  -1.350  1.00  0.00     0.312 C 
HETATM   15  H24 UNL     1      -4.712   1.737  -1.066  1.00  0.00     0.317 HD
ENDROOT
BRANCH   1  16
HETATM   16  N1  UNL     1       0.815  -2.873  -1.037  1.00  0.00    -0.376 N 
HETATM   17  C11 UNL     1       0.369  -4.130  -1.642  1.00  0.00     0.150 C 
BRANCH  16  18
HETATM   18  C10 UNL     1       2.105  -2.846  -0.317  1.00  0.00     0.118 A 
HETATM   19  C5  UNL     1       2.658  -1.472  -0.162  1.00  0.00    -0.029 A 
HETATM   20  C4  UNL     1       2.976  -0.574  -1.184  1.00  0.00     0.012 A 
HETATM   21  C6  UNL     1       2.849  -1.142   1.154  1.00  0.00    -0.047 A 
HETATM   22  C3  UNL     1       3.475   0.691  -0.842  1.00  0.00     0.037 A 
HETATM   23  C2  UNL     1       3.663   1.043   0.517  1.00  0.00     0.068 A 
HETATM   24  C7  UNL     1       3.348   0.110   1.520  1.00  0.00     0.044 A 
HETATM   25  C8  UNL     1       2.468  -2.242   2.071  1.00  0.00     0.041 A 
HETATM   26  C9  UNL     1       1.958  -3.357   1.136  1.00  0.00     0.035 A 
BRANCH  23  27
HETATM   27  O1  UNL     1       4.155   2.297   0.906  1.00  0.00    -0.356 OA
HETATM   28  C1  UNL     1       4.509   3.337   0.001  1.00  0.00     0.210 C 
ENDBRANCH  23  27
ENDBRANCH  16  18
ENDBRANCH   1  16
TORSDOF 3
