REMARK  6 active torsions:
REMARK  status: ('A' for Active; 'I' for Inactive)
REMARK    1  A    between atoms: C2_2  and  C3_3 
REMARK    2  A    between atoms: C2_2  and  N1_10 
REMARK       I    between atoms: N1_10  and  C10_12 
REMARK    3  A    between atoms: C10_12  and  C11_14 
REMARK    4  A    between atoms: C11_14  and  N2_15 
REMARK    5  A    between atoms: C16_21  and  O2_22 
REMARK    6  A    between atoms: O2_22  and  C17_23 
ROOT
HETATM    1  N2  UNL     1       0.339  -0.464  -0.807  1.00  0.00    -0.339 N 
HETATM    2  C12 UNL     1       1.037  -1.126  -1.922  1.00  0.00     0.161 C 
HETATM    3  C13 UNL     1       1.788  -2.389  -1.441  1.00  0.00     0.234 C 
HETATM    4  C14 UNL     1       1.965  -3.380  -2.595  1.00  0.00     0.044 C 
HETATM    5  N3  UNL     1       3.117  -2.061  -0.902  1.00  0.00     0.092 N 
HETATM    6  C15 UNL     1       3.078  -1.445   0.432  1.00  0.00     0.312 C 
HETATM    7  C16 UNL     1       2.561   0.009   0.427  1.00  0.00     0.248 C 
HETATM    8  C23 UNL     1       1.059   0.050   0.336  1.00  0.00     0.251 C 
HETATM    9  O3  UNL     1       0.419   0.555   1.300  1.00  0.00    -0.270 OA
HETATM   10  H20 UNL     1       3.662  -1.469  -1.572  1.00  0.00     0.316 HD
ENDROOT
BRANCH   1  11
HETATM   11  C11 UNL     1      -1.121  -0.287  -0.867  1.00  0.00     0.228 C 
BRANCH  11  12
HETATM   12  C10 UNL     1      -1.820  -1.244   0.065  1.00  0.00     0.237 C 
HETATM   13  N1  UNL     1      -3.077  -0.918   0.700  1.00  0.00    -0.347 N 
HETATM   14  C9  UNL     1      -3.439  -1.657   1.917  1.00  0.00     0.153 C 
HETATM   15  O1  UNL     1      -1.296  -2.372   0.274  1.00  0.00    -0.272 OA
BRANCH  13  16
HETATM   16  C2  UNL     1      -4.043   0.016   0.083  1.00  0.00     0.115 C 
HETATM   17  C1  UNL     1      -5.221  -0.761  -0.525  1.00  0.00     0.037 C 
BRANCH  16  18
HETATM   18  C3  UNL     1      -4.446   1.105   1.069  1.00  0.00    -0.033 A 
HETATM   19  C4  UNL     1      -3.549   2.161   1.315  1.00  0.00     0.009 A 
HETATM   20  C5  UNL     1      -3.860   3.161   2.240  1.00  0.00     0.004 A 
HETATM   21  C6  UNL     1      -5.067   3.117   2.941  1.00  0.00     0.042 A 
HETATM   22  C7  UNL     1      -5.963   2.070   2.720  1.00  0.00     0.117 A 
HETATM   23  F1  UNL     1      -7.131   2.024   3.407  1.00  0.00    -0.206 F 
HETATM   24  C8  UNL     1      -5.657   1.066   1.795  1.00  0.00     0.051 A 
ENDBRANCH  16  18
ENDBRANCH  13  16
ENDBRANCH  11  12
ENDBRANCH   1  11
BRANCH   7  25
HETATM   25  O2  UNL     1       3.122   0.776  -0.642  1.00  0.00    -0.335 OA
BRANCH  25  26
HETATM   26  C17 UNL     1       4.452   1.220  -0.728  1.00  0.00     0.070 A 
HETATM   27  C18 UNL     1       5.365   1.119   0.342  1.00  0.00     0.037 A 
HETATM   28  C19 UNL     1       6.676   1.584   0.194  1.00  0.00     0.003 A 
HETATM   29  C20 UNL     1       7.088   2.151  -1.014  1.00  0.00     0.000 A 
HETATM   30  C21 UNL     1       6.188   2.256  -2.078  1.00  0.00     0.003 A 
HETATM   31  C22 UNL     1       4.876   1.794  -1.933  1.00  0.00     0.037 A 
ENDBRANCH  25  26
ENDBRANCH   7  25
TORSDOF 6
