REMARK  2 active torsions:
REMARK  status: ('A' for Active; 'I' for Inactive)
REMARK    1  A    between atoms: C1_2  and  C2_3 
REMARK       I    between atoms: C1_2  and  N2_25 
REMARK    2  A    between atoms: N2_25  and  C22_26 
ROOT
HETATM    1  C2  UNL     1      -0.552  -0.669   0.020  1.00  0.00     0.033 A 
HETATM    2  C3  UNL     1      -1.038   0.416  -0.729  1.00  0.00     0.018 A 
HETATM    3  C4  UNL     1      -2.319   0.381  -1.279  1.00  0.00     0.014 A 
HETATM    4  C5  UNL     1      -3.137  -0.740  -1.099  1.00  0.00    -0.018 A 
HETATM    5  C6  UNL     1      -2.665  -1.845  -0.355  1.00  0.00    -0.037 A 
HETATM    6  C7  UNL     1      -1.371  -1.799   0.193  1.00  0.00     0.025 A 
HETATM    7  C8  UNL     1      -3.513  -3.087  -0.167  1.00  0.00     0.142 C 
HETATM    8  C9  UNL     1      -4.827  -2.774   0.492  1.00  0.00     0.226 C 
HETATM    9  O2  UNL     1      -5.889  -3.296   0.056  1.00  0.00    -0.273 OA
HETATM   10  N1  UNL     1      -4.873  -1.948   1.657  1.00  0.00    -0.326 N 
HETATM   11  C10 UNL     1      -5.026  -0.510   1.663  1.00  0.00     0.045 A 
HETATM   12  C11 UNL     1      -4.832   0.154   2.888  1.00  0.00     0.030 A 
HETATM   13  C12 UNL     1      -4.979   1.537   2.991  1.00  0.00     0.002 A 
HETATM   14  C13 UNL     1      -5.329   2.288   1.873  1.00  0.00     0.001 A 
HETATM   15  C14 UNL     1      -5.531   1.659   0.647  1.00  0.00     0.014 A 
HETATM   16  C15 UNL     1      -5.382   0.266   0.516  1.00  0.00     0.002 A 
HETATM   17  C16 UNL     1      -5.595  -0.302  -0.837  1.00  0.00    -0.013 A 
HETATM   18  C17 UNL     1      -6.895  -0.336  -1.369  1.00  0.00     0.013 A 
HETATM   19  C18 UNL     1      -7.114  -0.798  -2.669  1.00  0.00     0.001 A 
HETATM   20  C19 UNL     1      -6.039  -1.217  -3.456  1.00  0.00     0.001 A 
HETATM   21  C20 UNL     1      -4.740  -1.178  -2.945  1.00  0.00     0.013 A 
HETATM   22  C21 UNL     1      -4.509  -0.719  -1.639  1.00  0.00    -0.014 A 
HETATM   23  H6  UNL     1      -4.662  -2.430   2.560  1.00  0.00     0.169 HD
ENDROOT
BRANCH   1  24
HETATM   24  C1  UNL     1       0.814  -0.637   0.596  1.00  0.00     0.256 C 
HETATM   25  O1  UNL     1       1.356  -1.711   0.981  1.00  0.00    -0.267 OA
HETATM   26  N2  UNL     1       1.509   0.610   0.760  1.00  0.00    -0.323 N 
HETATM   27  H15 UNL     1       0.939   1.461   0.969  1.00  0.00     0.169 HD
BRANCH  26  28
HETATM   28  C22 UNL     1       2.942   0.748   0.721  1.00  0.00     0.037 A 
HETATM   29  C23 UNL     1       3.536   1.870   1.306  1.00  0.00     0.030 A 
HETATM   30  C24 UNL     1       4.916   2.065   1.244  1.00  0.00     0.017 A 
HETATM   31  C25 UNL     1       5.752   1.137   0.578  1.00  0.00     0.002 A 
HETATM   32  C26 UNL     1       5.145   0.001  -0.023  1.00  0.00     0.048 A 
HETATM   33  C34 UNL     1       7.165   1.293   0.468  1.00  0.00    -0.008 A 
HETATM   34  C27 UNL     1       3.754  -0.177   0.045  1.00  0.00     0.060 A 
HETATM   35  N3  UNL     1       5.904  -0.920  -0.682  1.00  0.00    -0.322 N 
HETATM   36  C28 UNL     1       7.249  -0.796  -0.799  1.00  0.00     0.257 A 
HETATM   37  H19 UNL     1       5.442  -1.754  -1.119  1.00  0.00     0.169 HD
HETATM   38  O3  UNL     1       7.893  -1.680  -1.429  1.00  0.00    -0.267 OA
HETATM   39  C29 UNL     1       7.914   0.307  -0.233  1.00  0.00     0.043 A 
HETATM   40  C30 UNL     1       9.311   0.444  -0.363  1.00  0.00     0.018 A 
HETATM   41  C31 UNL     1       9.968   1.541   0.184  1.00  0.00     0.001 A 
HETATM   42  C32 UNL     1       9.248   2.510   0.872  1.00  0.00     0.001 A 
HETATM   43  C33 UNL     1       7.863   2.395   1.020  1.00  0.00     0.013 A 
ENDBRANCH  26  28
ENDBRANCH   1  24
TORSDOF 2
