REMARK  2 active torsions:
REMARK  status: ('A' for Active; 'I' for Inactive)
REMARK       I    between atoms: C1_2  and  N1_3 
REMARK       I    between atoms: C1_2  and  N3_17 
REMARK    1  A    between atoms: C17_23  and  C18_24 
REMARK    2  A    between atoms: C18_24  and  O3_26 
ROOT
HETATM    1  O1  UNL     1       2.545   0.395   2.131  1.00  0.00    -0.247 OA
HETATM    2  C1  UNL     1       2.125   0.085   0.983  1.00  0.00     0.321 C 
HETATM    3  N1  UNL     1       0.731   0.262   0.681  1.00  0.00    -0.334 N 
HETATM    4  C2  UNL     1       0.092   1.533   1.048  1.00  0.00     0.128 C 
HETATM    5  C3  UNL     1      -1.197   1.726   0.243  1.00  0.00     0.032 C 
HETATM    6  C4  UNL     1      -2.215   0.555   0.440  1.00  0.00     0.008 C 
HETATM    7  C5  UNL     1      -1.498  -0.755   0.912  1.00  0.00     0.032 C 
HETATM    8  C6  UNL     1      -0.100  -0.890   0.303  1.00  0.00     0.128 C 
HETATM    9  C7  UNL     1      -3.351   0.937   1.458  1.00  0.00     0.061 C 
HETATM   10  C8  UNL     1      -4.566   0.983   0.574  1.00  0.00     0.216 C 
HETATM   11  C9  UNL     1      -5.446  -0.030   0.666  1.00  0.00     0.017 C 
HETATM   12  C10 UNL     1      -5.678  -0.948  -0.493  1.00  0.00    -0.002 C 
HETATM   13  C11 UNL     1      -4.727  -1.279  -1.408  1.00  0.00    -0.002 C 
HETATM   14  C12 UNL     1      -3.319  -0.775  -1.376  1.00  0.00     0.018 C 
HETATM   15  C13 UNL     1      -3.036   0.430  -0.846  1.00  0.00     0.224 C 
HETATM   16  N2  UNL     1      -4.132   1.315  -0.726  1.00  0.00     0.117 N 
HETATM   17  N3  UNL     1       3.061  -0.371  -0.017  1.00  0.00    -0.314 N 
HETATM   18  C14 UNL     1       2.675  -0.917  -1.308  1.00  0.00     0.207 C 
HETATM   19  C15 UNL     1       3.966  -1.409  -1.958  1.00  0.00     0.262 C 
HETATM   20  F1  UNL     1       4.055  -2.788  -1.850  1.00  0.00    -0.204 F 
HETATM   21  F2  UNL     1       4.011  -1.052  -3.296  1.00  0.00    -0.204 F 
HETATM   22  C16 UNL     1       5.107  -0.757  -1.181  1.00  0.00     0.117 C 
HETATM   23  C17 UNL     1       4.509  -0.333   0.163  1.00  0.00     0.192 C 
HETATM   24  H15 UNL     1      -4.023   2.317  -0.998  1.00  0.00     0.319 HD
ENDROOT
BRANCH  23  25
HETATM   25  C18 UNL     1       4.984   1.040   0.558  1.00  0.00     0.164 C 
HETATM   26  O2  UNL     1       4.541   2.061  -0.034  1.00  0.00    -0.648 OA
BRANCH  25  27
HETATM   27  O3  UNL     1       5.940   1.178   1.558  1.00  0.00    -0.775 OA
HETATM   28  H21 UNL     1       6.279   2.093   1.830  1.00  0.00     0.167 HD
ENDBRANCH  25  27
ENDBRANCH  23  25
TORSDOF 2
