REMARK  5 active torsions:
REMARK  status: ('A' for Active; 'I' for Inactive)
REMARK    1  A    between atoms: C5_5  and  O1_6 
REMARK    2  A    between atoms: C7_8  and  C8_9 
REMARK       I    between atoms: C8_9  and  N1_11 
REMARK       I    between atoms: N2_14  and  C11_15 
REMARK    3  A    between atoms: C11_15  and  C12_17 
REMARK    4  A    between atoms: C12_17  and  C13_18 
REMARK    5  A    between atoms: C20_26  and  O5_27 
ROOT
HETATM    1  C8  UNL     1       2.786  -0.702   0.829  1.00  0.00     0.254 C 
HETATM    2  O2  UNL     1       2.373  -1.606   1.605  1.00  0.00    -0.267 OA
HETATM    3  N1  UNL     1       1.950   0.443   0.560  1.00  0.00    -0.344 N 
HETATM    4  C9  UNL     1       1.933   1.034  -0.790  1.00  0.00     0.146 C 
HETATM    5  C10 UNL     1       0.653   0.644  -1.538  1.00  0.00     0.145 C 
HETATM    6  N2  UNL     1      -0.540   0.834  -0.699  1.00  0.00    -0.348 N 
HETATM    7  C11 UNL     1      -1.565  -0.184  -0.678  1.00  0.00     0.222 C 
HETATM    8  O3  UNL     1      -1.700  -0.947  -1.673  1.00  0.00    -0.273 OA
HETATM    9  C19 UNL     1      -0.687   2.094   0.045  1.00  0.00     0.159 C 
HETATM   10  C20 UNL     1       0.222   2.157   1.304  1.00  0.00     0.154 C 
HETATM   11  C21 UNL     1       0.990   0.849   1.608  1.00  0.00     0.159 C 
ENDROOT
BRANCH   1  12
HETATM   12  C7  UNL     1       4.149  -0.812   0.255  1.00  0.00     0.040 A 
HETATM   13  C2  UNL     1       4.634  -2.020  -0.307  1.00  0.00    -0.046 A 
HETATM   14  C1  UNL     1       3.775  -3.255  -0.391  1.00  0.00     0.049 C 
HETATM   15  C3  UNL     1       5.950  -2.070  -0.798  1.00  0.00     0.010 A 
HETATM   16  C4  UNL     1       6.768  -0.940  -0.758  1.00  0.00     0.037 A 
HETATM   17  C5  UNL     1       6.288   0.256  -0.221  1.00  0.00     0.066 A 
HETATM   18  C6  UNL     1       4.984   0.318   0.284  1.00  0.00     0.054 A 
BRANCH  17  19
HETATM   19  O1  UNL     1       7.116   1.376  -0.191  1.00  0.00    -0.361 OA
HETATM   20  H6  UNL     1       6.796   2.261   0.186  1.00  0.00     0.217 HD
ENDBRANCH  17  19
ENDBRANCH   1  12
BRANCH  10  21
HETATM   21  O5  UNL     1      -0.555   2.481   2.429  1.00  0.00    -0.392 OA
HETATM   22  H26 UNL     1      -0.797   3.441   2.346  1.00  0.00     0.210 HD
ENDBRANCH  10  21
BRANCH   7  23
HETATM   23  C12 UNL     1      -2.430  -0.426   0.536  1.00  0.00     0.141 C 
BRANCH  23  24
HETATM   24  C13 UNL     1      -3.933  -0.387   0.204  1.00  0.00     0.069 C 
HETATM   25  C14 UNL     1      -4.446   0.964  -0.334  1.00  0.00     0.039 C 
HETATM   26  C15 UNL     1      -5.954   0.840  -0.075  1.00  0.00     0.010 C 
HETATM   27  C16 UNL     1      -6.060  -0.548   0.577  1.00  0.00     0.012 C 
HETATM   28  C17 UNL     1      -5.692  -1.587  -0.483  1.00  0.00     0.173 C 
HETATM   29  C18 UNL     1      -4.817  -0.609   1.409  1.00  0.00     0.045 C 
HETATM   30  O4  UNL     1      -4.305  -1.407  -0.712  1.00  0.00    -0.379 OA
ENDBRANCH  23  24
ENDBRANCH   7  23
TORSDOF 5
