REMARK  1 active torsions:
REMARK  status: ('A' for Active; 'I' for Inactive)
REMARK    1  A    between atoms: C5_5  and  C6_6 
ROOT
HETATM    1  C6  UNL     1       2.334   0.024   0.057  1.00  0.00    -0.025 A 
HETATM    2  C7  UNL     1       2.050   0.813  -1.060  1.00  0.00     0.013 A 
HETATM    3  C8  UNL     1       0.839   1.494  -1.153  1.00  0.00     0.015 A 
HETATM    4  C9  UNL     1      -0.146   1.406  -0.143  1.00  0.00     0.007 A 
HETATM    5  C10 UNL     1       0.106   0.523   0.941  1.00  0.00     0.023 A 
HETATM    6  C11 UNL     1       1.354  -0.120   1.046  1.00  0.00     0.028 A 
HETATM    7  C12 UNL     1      -0.978  -0.124   1.677  1.00  0.00     0.164 C 
HETATM    8  O1  UNL     1      -1.430   0.384   2.737  1.00  0.00    -0.292 OA
HETATM    9  C13 UNL     1      -1.449  -1.474   1.192  1.00  0.00     0.123 C 
HETATM   10  C14 UNL     1      -1.596  -1.451  -0.323  1.00  0.00    -0.040 A 
HETATM   11  C15 UNL     1      -0.636  -2.079  -1.135  1.00  0.00     0.008 A 
HETATM   12  C16 UNL     1      -0.674  -1.923  -2.524  1.00  0.00     0.001 A 
HETATM   13  C17 UNL     1      -1.664  -1.133  -3.116  1.00  0.00     0.001 A 
HETATM   14  C18 UNL     1      -2.624  -0.499  -2.323  1.00  0.00     0.013 A 
HETATM   15  C19 UNL     1      -2.588  -0.649  -0.931  1.00  0.00    -0.018 A 
HETATM   16  C20 UNL     1      -3.619  -0.040  -0.085  1.00  0.00    -0.014 A 
HETATM   17  C21 UNL     1      -4.658  -0.881   0.352  1.00  0.00     0.013 A 
HETATM   18  C22 UNL     1      -5.455  -0.521   1.437  1.00  0.00     0.001 A 
HETATM   19  C23 UNL     1      -5.211   0.671   2.112  1.00  0.00     0.001 A 
HETATM   20  C24 UNL     1      -4.205   1.529   1.670  1.00  0.00     0.013 A 
HETATM   21  C25 UNL     1      -3.406   1.206   0.550  1.00  0.00    -0.013 A 
HETATM   22  C26 UNL     1      -2.638   2.325  -0.069  1.00  0.00     0.005 A 
HETATM   23  C27 UNL     1      -3.441   3.431  -0.431  1.00  0.00     0.016 A 
HETATM   24  C28 UNL     1      -2.884   4.644  -0.810  1.00  0.00     0.020 A 
HETATM   25  C29 UNL     1      -1.508   4.769  -0.836  1.00  0.00     0.117 A 
HETATM   26  N1  UNL     1      -0.731   3.697  -0.554  1.00  0.00    -0.259 NA
HETATM   27  C30 UNL     1      -1.213   2.467  -0.198  1.00  0.00     0.078 A 
ENDROOT
BRANCH   1  28
HETATM   28  C5  UNL     1       3.625  -0.703   0.165  1.00  0.00    -0.026 A 
HETATM   29  C4  UNL     1       4.295  -0.785   1.399  1.00  0.00     0.013 A 
HETATM   30  C3  UNL     1       5.507  -1.472   1.504  1.00  0.00     0.007 A 
HETATM   31  C2  UNL     1       6.064  -2.101   0.381  1.00  0.00    -0.062 A 
HETATM   32  C1  UNL     1       7.385  -2.805   0.486  1.00  0.00     0.048 C 
HETATM   33  C32 UNL     1       5.408  -2.009  -0.855  1.00  0.00     0.007 A 
HETATM   34  C31 UNL     1       4.196  -1.322  -0.962  1.00  0.00     0.013 A 
ENDBRANCH   1  28
TORSDOF 1
