REMARK  2 active torsions:
REMARK  status: ('A' for Active; 'I' for Inactive)
REMARK    1  A    between atoms: C1_2  and  C2_3 
REMARK    2  A    between atoms: C1_2  and  C26_29 
ROOT
HETATM    1  C2  UNL     1       0.183   2.489  -0.063  1.00  0.00     0.087 A 
HETATM    2  C3  UNL     1      -0.390   1.472  -0.825  1.00  0.00     0.046 A 
HETATM    3  C4  UNL     1      -1.783   1.374  -0.943  1.00  0.00    -0.011 A 
HETATM    4  C5  UNL     1      -2.614   2.300  -0.252  1.00  0.00     0.025 A 
HETATM    5  C6  UNL     1      -1.975   3.276   0.552  1.00  0.00     0.253 A 
HETATM    6  O2  UNL     1      -2.655   4.117   1.196  1.00  0.00    -0.268 OA
HETATM    7  N1  UNL     1      -0.619   3.343   0.628  1.00  0.00    -0.320 N 
HETATM    8  C7  UNL     1      -4.084   2.519  -0.605  1.00  0.00     0.084 C 
HETATM    9  C8  UNL     1      -5.040   1.348  -0.792  1.00  0.00    -0.043 A 
HETATM   10  C9  UNL     1      -6.044   1.515  -1.773  1.00  0.00     0.008 A 
HETATM   11  C10 UNL     1      -7.112   0.623  -1.873  1.00  0.00     0.001 A 
HETATM   12  C11 UNL     1      -7.218  -0.441  -0.982  1.00  0.00     0.001 A 
HETATM   13  C12 UNL     1      -6.245  -0.634  -0.001  1.00  0.00     0.013 A 
HETATM   14  C13 UNL     1      -5.157   0.252   0.111  1.00  0.00    -0.018 A 
HETATM   15  C14 UNL     1      -4.076  -0.141   1.033  1.00  0.00    -0.014 A 
HETATM   16  C15 UNL     1      -4.235   0.009   2.418  1.00  0.00     0.013 A 
HETATM   17  C16 UNL     1      -3.257  -0.478   3.290  1.00  0.00     0.001 A 
HETATM   18  C17 UNL     1      -2.128  -1.134   2.785  1.00  0.00     0.001 A 
HETATM   19  C18 UNL     1      -1.970  -1.306   1.406  1.00  0.00     0.013 A 
HETATM   20  C19 UNL     1      -2.948  -0.825   0.524  1.00  0.00    -0.014 A 
HETATM   21  C20 UNL     1      -2.755  -0.928  -0.937  1.00  0.00    -0.014 A 
HETATM   22  C21 UNL     1      -3.166  -2.081  -1.620  1.00  0.00     0.013 A 
HETATM   23  C22 UNL     1      -3.135  -2.115  -3.018  1.00  0.00     0.001 A 
HETATM   24  C23 UNL     1      -2.689  -1.003  -3.737  1.00  0.00     0.001 A 
HETATM   25  C24 UNL     1      -2.268   0.148  -3.061  1.00  0.00     0.013 A 
HETATM   26  C25 UNL     1      -2.309   0.196  -1.662  1.00  0.00    -0.014 A 
HETATM   27  H2  UNL     1      -0.185   4.072   1.242  1.00  0.00     0.169 HD
ENDROOT
BRANCH   1  28
HETATM   28  C1  UNL     1       1.650   2.660  -0.015  1.00  0.00     0.208 C 
HETATM   29  O1  UNL     1       2.129   3.825  -0.070  1.00  0.00    -0.285 OA
BRANCH  28  30
HETATM   30  C26 UNL     1       2.565   1.507   0.117  1.00  0.00     0.017 A 
HETATM   31  C27 UNL     1       2.221   0.415   0.927  1.00  0.00     0.016 A 
HETATM   32  C28 UNL     1       3.139  -0.612   1.154  1.00  0.00     0.014 A 
HETATM   33  C29 UNL     1       4.416  -0.585   0.555  1.00  0.00    -0.017 A 
HETATM   34  C30 UNL     1       4.743   0.492  -0.306  1.00  0.00    -0.037 A 
HETATM   35  C39 UNL     1       5.397  -1.668   0.866  1.00  0.00     0.001 A 
HETATM   36  C31 UNL     1       3.826   1.538  -0.495  1.00  0.00     0.024 A 
HETATM   37  C32 UNL     1       6.098   0.574  -0.951  1.00  0.00     0.142 C 
HETATM   38  C33 UNL     1       7.105   0.855   0.114  1.00  0.00     0.226 C 
HETATM   39  O3  UNL     1       7.778   1.918   0.066  1.00  0.00    -0.273 OA
HETATM   40  N2  UNL     1       7.303  -0.062   1.200  1.00  0.00    -0.326 N 
HETATM   41  C34 UNL     1       6.748  -1.392   1.221  1.00  0.00     0.045 A 
HETATM   42  H22 UNL     1       8.058   0.162   1.890  1.00  0.00     0.169 HD
HETATM   43  C35 UNL     1       7.575  -2.442   1.650  1.00  0.00     0.030 A 
HETATM   44  C36 UNL     1       7.108  -3.756   1.682  1.00  0.00     0.002 A 
HETATM   45  C37 UNL     1       5.806  -4.041   1.285  1.00  0.00     0.001 A 
HETATM   46  C38 UNL     1       4.957  -3.009   0.879  1.00  0.00     0.014 A 
ENDBRANCH  28  30
ENDBRANCH   1  28
TORSDOF 2
