REMARK  2 active torsions:
REMARK  status: ('A' for Active; 'I' for Inactive)
REMARK    1  A    between atoms: C1_2  and  C2_3 
REMARK    2  A    between atoms: C1_2  and  C22_23 
ROOT
HETATM    1  C2  UNL     1      -0.341  -0.643   0.126  1.00  0.00     0.015 A 
HETATM    2  C3  UNL     1      -0.321   0.739   0.368  1.00  0.00     0.016 A 
HETATM    3  C4  UNL     1      -1.344   1.553  -0.122  1.00  0.00     0.014 A 
HETATM    4  C5  UNL     1      -2.402   1.002  -0.862  1.00  0.00    -0.019 A 
HETATM    5  C6  UNL     1      -2.405  -0.382  -1.153  1.00  0.00    -0.046 A 
HETATM    6  C7  UNL     1      -1.387  -1.196  -0.628  1.00  0.00     0.023 A 
HETATM    7  C8  UNL     1      -3.459  -0.993  -2.055  1.00  0.00     0.044 C 
HETATM    8  C9  UNL     1      -4.851  -1.192  -1.415  1.00  0.00     0.044 C 
HETATM    9  C10 UNL     1      -4.994  -0.722   0.017  1.00  0.00    -0.047 A 
HETATM   10  C11 UNL     1      -5.152  -1.672   1.045  1.00  0.00     0.008 A 
HETATM   11  C12 UNL     1      -5.398  -1.262   2.358  1.00  0.00     0.001 A 
HETATM   12  C13 UNL     1      -5.481   0.096   2.664  1.00  0.00     0.001 A 
HETATM   13  C14 UNL     1      -5.311   1.052   1.661  1.00  0.00     0.013 A 
HETATM   14  C15 UNL     1      -5.060   0.657   0.336  1.00  0.00    -0.019 A 
HETATM   15  C16 UNL     1      -4.813   1.700  -0.686  1.00  0.00    -0.014 A 
HETATM   16  C17 UNL     1      -5.854   2.571  -1.046  1.00  0.00     0.013 A 
HETATM   17  C18 UNL     1      -5.633   3.589  -1.973  1.00  0.00     0.001 A 
HETATM   18  C19 UNL     1      -4.364   3.764  -2.532  1.00  0.00     0.001 A 
HETATM   19  C20 UNL     1      -3.315   2.913  -2.172  1.00  0.00     0.013 A 
HETATM   20  C21 UNL     1      -3.531   1.871  -1.257  1.00  0.00    -0.014 A 
ENDROOT
BRANCH   1  21
HETATM   21  C1  UNL     1       0.705  -1.522   0.692  1.00  0.00     0.192 C 
HETATM   22  O1  UNL     1       0.356  -2.616   1.216  1.00  0.00    -0.287 OA
BRANCH  21  23
HETATM   23  C22 UNL     1       2.146  -1.170   0.647  1.00  0.00     0.016 A 
HETATM   24  C23 UNL     1       2.660  -0.368  -0.379  1.00  0.00     0.016 A 
HETATM   25  C24 UNL     1       4.029  -0.117  -0.471  1.00  0.00     0.014 A 
HETATM   26  C25 UNL     1       4.940  -0.672   0.461  1.00  0.00    -0.008 A 
HETATM   27  C26 UNL     1       4.416  -1.472   1.513  1.00  0.00     0.044 A 
HETATM   28  C34 UNL     1       6.350  -0.473   0.381  1.00  0.00     0.002 A 
HETATM   29  C27 UNL     1       3.029  -1.713   1.591  1.00  0.00     0.033 A 
HETATM   30  C28 UNL     1       5.293  -2.025   2.464  1.00  0.00     0.257 A 
HETATM   31  O2  UNL     1       4.846  -2.713   3.421  1.00  0.00    -0.267 OA
HETATM   32  N1  UNL     1       6.632  -1.823   2.363  1.00  0.00    -0.322 N 
HETATM   33  C29 UNL     1       7.179  -1.080   1.362  1.00  0.00     0.046 A 
HETATM   34  H19 UNL     1       7.253  -2.253   3.084  1.00  0.00     0.169 HD
HETATM   35  C30 UNL     1       8.575  -0.926   1.302  1.00  0.00     0.030 A 
HETATM   36  C31 UNL     1       9.160  -0.176   0.285  1.00  0.00     0.002 A 
HETATM   37  C32 UNL     1       8.361   0.434  -0.678  1.00  0.00     0.001 A 
HETATM   38  C33 UNL     1       6.972   0.290  -0.638  1.00  0.00     0.014 A 
ENDBRANCH  21  23
ENDBRANCH   1  21
TORSDOF 2
