REMARK  1 active torsions:
REMARK  status: ('A' for Active; 'I' for Inactive)
REMARK    1  A    between atoms: C7_8  and  C8_9 
REMARK       I    between atoms: C8_9  and  N2_11 
REMARK       I    between atoms: N2_11  and  C9_12 
REMARK       I    between atoms: C9_12  and  N3_14 
ROOT
HETATM    1  C8  UNL     1       1.832  -0.088   0.618  1.00  0.00     0.260 C 
HETATM    2  O1  UNL     1       1.844  -1.124   1.335  1.00  0.00    -0.267 OA
HETATM    3  N2  UNL     1       0.579   0.504   0.232  1.00  0.00    -0.275 N 
HETATM    4  C9  UNL     1      -0.689   0.136   0.797  1.00  0.00     0.326 C 
HETATM    5  O2  UNL     1      -0.752  -0.699   1.739  1.00  0.00    -0.247 OA
HETATM    6  N3  UNL     1      -1.894   0.754   0.303  1.00  0.00    -0.321 N 
HETATM    7  C10 UNL     1      -1.976   2.208   0.551  1.00  0.00     0.148 C 
HETATM    8  C11 UNL     1      -2.281   2.992  -0.724  1.00  0.00     0.142 C 
HETATM    9  N4  UNL     1      -3.720   3.059  -0.931  1.00  0.00    -0.359 N 
HETATM   10  C12 UNL     1      -4.518   1.879  -1.017  1.00  0.00     0.220 C 
HETATM   11  O3  UNL     1      -5.772   1.973  -0.934  1.00  0.00    -0.274 OA
HETATM   12  C13 UNL     1      -3.888   0.531  -1.231  1.00  0.00     0.135 C 
HETATM   13  C14 UNL     1      -3.108  -0.068  -0.012  1.00  0.00     0.061 C 
HETATM   14  C15 UNL     1      -2.694  -1.545  -0.457  1.00  0.00     0.042 C 
HETATM   15  C16 UNL     1      -3.082  -2.662   0.527  1.00  0.00     0.105 C 
HETATM   16  C17 UNL     1      -4.518  -2.497   0.903  1.00  0.00     0.217 C 
HETATM   17  O4  UNL     1      -5.288  -3.491   0.979  1.00  0.00    -0.274 OA
HETATM   18  N5  UNL     1      -4.997  -1.184   1.175  1.00  0.00    -0.359 N 
HETATM   19  C18 UNL     1      -4.031  -0.094   1.250  1.00  0.00     0.154 C 
HETATM   20  H7  UNL     1       0.572   1.207  -0.540  1.00  0.00     0.173 HD
HETATM   21  H12 UNL     1      -4.192   3.991  -0.911  1.00  0.00     0.162 HD
HETATM   22  H19 UNL     1      -6.015  -1.006   1.327  1.00  0.00     0.162 HD
ENDROOT
BRANCH   1  23
HETATM   23  C7  UNL     1       3.115   0.499   0.161  1.00  0.00     0.041 A 
HETATM   24  C6  UNL     1       3.222   1.878  -0.135  1.00  0.00     0.018 A 
HETATM   25  C5  UNL     1       4.442   2.427  -0.577  1.00  0.00     0.003 A 
HETATM   26  C4  UNL     1       5.573   1.612  -0.731  1.00  0.00     0.032 A 
HETATM   27  C3  UNL     1       5.455   0.259  -0.427  1.00  0.00     0.064 A 
HETATM   28  N1  UNL     1       6.474  -0.717  -0.544  1.00  0.00    -0.257 NA
HETATM   29  C19 UNL     1       4.274  -0.284   0.012  1.00  0.00    -0.008 A 
HETATM   30  C2  UNL     1       5.941  -1.846  -0.190  1.00  0.00     0.013 A 
HETATM   31  C1  UNL     1       6.717  -3.120  -0.186  1.00  0.00     0.066 C 
HETATM   32  C20 UNL     1       4.491  -1.744   0.212  1.00  0.00     0.096 A 
ENDBRANCH   1  23
TORSDOF 1
