REMARK  0 active torsions:
REMARK  status: ('A' for Active; 'I' for Inactive)
ROOT
HETATM    1  O1  UNL     1       1.439  -1.448   0.500  1.00  0.00    -0.293 OA
HETATM    2  C1  UNL     1       0.298  -1.850   0.145  1.00  0.00     0.157 C 
HETATM    3  C2  UNL     1       0.227  -2.759  -1.016  1.00  0.00     0.048 C 
HETATM    4  C3  UNL     1       0.577  -2.325  -2.230  1.00  0.00    -0.009 C 
HETATM    5  C4  UNL     1       0.736  -0.825  -2.454  1.00  0.00     0.026 A 
HETATM    6  C5  UNL     1      -0.227   0.178  -2.415  1.00  0.00     0.048 A 
HETATM    7  C6  UNL     1      -0.221   1.595  -2.540  1.00  0.00     0.051 A 
HETATM    8  C7  UNL     1       0.389   1.397  -1.398  1.00  0.00     0.028 A 
HETATM    9  C8  UNL     1       1.746   1.894  -1.116  1.00  0.00    -0.016 C 
HETATM   10  C9  UNL     1       2.128   2.265   0.111  1.00  0.00    -0.019 C 
HETATM   11  C10 UNL     1       1.228   2.452   1.272  1.00  0.00     0.053 C 
HETATM   12  C11 UNL     1       1.188   1.517   2.233  1.00  0.00    -0.043 A 
HETATM   13  C12 UNL     1       1.791   1.662   3.555  1.00  0.00     0.008 A 
HETATM   14  C13 UNL     1       1.403   0.643   4.305  1.00  0.00     0.001 A 
HETATM   15  C14 UNL     1       0.462  -0.178   3.549  1.00  0.00     0.007 A 
HETATM   16  C15 UNL     1       0.302   0.343   2.337  1.00  0.00    -0.050 A 
HETATM   17  C16 UNL     1      -0.879   0.023   1.454  1.00  0.00     0.055 C 
HETATM   18  C17 UNL     1       1.223  -0.241  -3.463  1.00  0.00     0.033 A 
HETATM   19  C18 UNL     1       0.070   0.257  -2.433  1.00  0.00     0.033 A 
HETATM   20  N1  UNL     1      -1.313  -0.344  -2.451  1.00  0.00    -0.287 NA
HETATM   21  C19 UNL     1      -2.428   0.010  -1.561  1.00  0.00     0.161 C 
HETATM   22  C20 UNL     1      -2.879  -1.201  -0.771  1.00  0.00     0.104 C 
HETATM   23  F1  UNL     1      -4.058  -1.758  -1.160  1.00  0.00    -0.210 F 
HETATM   24  C21 UNL     1      -2.245  -1.792   0.273  1.00  0.00     0.025 C 
HETATM   25  C22 UNL     1      -0.920  -1.442   0.949  1.00  0.00     0.089 C 
ENDROOT
TORSDOF 0
