REMARK  5 active torsions:
REMARK  status: ('A' for Active; 'I' for Inactive)
REMARK    1  A    between atoms: C3_4  and  C4_5 
REMARK    2  A    between atoms: C4_5  and  N2_6 
REMARK       I    between atoms: N2_6  and  C5_7 
REMARK       I    between atoms: C5_7  and  N3_9 
REMARK    3  A    between atoms: N3_9  and  C6_10 
REMARK    4  A    between atoms: C13_18  and  O3_19 
REMARK    5  A    between atoms: C16_22  and  O4_23 
ROOT
HETATM    1  C6  UNL     1       1.155  -1.383   0.192  1.00  0.00     0.070 A 
HETATM    2  C7  UNL     1       1.285  -2.699   0.657  1.00  0.00     0.032 A 
HETATM    3  C8  UNL     1       2.426  -3.095   1.341  1.00  0.00     0.003 A 
HETATM    4  C9  UNL     1       3.450  -2.184   1.578  1.00  0.00     0.013 A 
HETATM    5  C10 UNL     1       3.358  -0.851   1.129  1.00  0.00     0.006 A 
HETATM    6  C11 UNL     1       2.200  -0.452   0.389  1.00  0.00     0.104 A 
HETATM    7  O2  UNL     1       1.988   0.829  -0.164  1.00  0.00    -0.346 OA
HETATM    8  C12 UNL     1       2.924   1.820  -0.590  1.00  0.00     0.207 C 
HETATM    9  C13 UNL     1       3.930   1.310  -1.635  1.00  0.00     0.142 C 
HETATM   10  C14 UNL     1       4.871   0.204  -1.125  1.00  0.00     0.036 C 
HETATM   11  C15 UNL     1       5.439   0.444   0.291  1.00  0.00     0.039 C 
HETATM   12  C16 UNL     1       4.511   0.076   1.485  1.00  0.00     0.154 C 
ENDROOT
BRANCH   1  13
HETATM   13  N3  UNL     1      -0.013  -0.996  -0.556  1.00  0.00    -0.306 N 
HETATM   14  C5  UNL     1      -1.347  -1.398  -0.211  1.00  0.00     0.320 C 
HETATM   15  N2  UNL     1      -2.428  -1.104  -1.106  1.00  0.00    -0.341 N 
HETATM   16  O1  UNL     1      -1.574  -1.983   0.884  1.00  0.00    -0.247 OA
HETATM   17  H9  UNL     1      -2.210  -0.691  -2.040  1.00  0.00     0.164 HD
HETATM   18  H10 UNL     1       0.101  -0.328  -1.351  1.00  0.00     0.171 HD
BRANCH  15  19
HETATM   19  C4  UNL     1      -3.820  -1.425  -0.795  1.00  0.00     0.151 C 
BRANCH  19  20
HETATM   20  C3  UNL     1      -4.384  -0.464   0.262  1.00  0.00     0.122 A 
HETATM   21  C2  UNL     1      -4.424   1.016  -0.234  1.00  0.00     0.153 A 
HETATM   22  N1  UNL     1      -5.821   1.421  -0.138  1.00  0.00    -0.337 N 
HETATM   23  C1  UNL     1      -6.354   2.733  -0.478  1.00  0.00     0.154 C 
HETATM   24  C17 UNL     1      -6.568   0.321   0.329  1.00  0.00     0.318 A 
HETATM   25  N4  UNL     1      -5.769  -0.813   0.566  1.00  0.00    -0.335 N 
HETATM   26  O5  UNL     1      -7.813   0.347   0.520  1.00  0.00    -0.247 OA
HETATM   27  H24 UNL     1      -6.102  -1.724   0.953  1.00  0.00     0.164 HD
ENDBRANCH  19  20
ENDBRANCH  15  19
ENDBRANCH   1  13
BRANCH  12  28
HETATM   28  O4  UNL     1       4.043   1.222   2.147  1.00  0.00    -0.391 OA
HETATM   29  H23 UNL     1       3.660   0.923   3.013  1.00  0.00     0.210 HD
ENDBRANCH  12  28
BRANCH   9  30
HETATM   30  O3  UNL     1       4.709   2.389  -2.087  1.00  0.00    -0.393 OA
HETATM   31  H17 UNL     1       4.149   2.906  -2.724  1.00  0.00     0.210 HD
ENDBRANCH   9  30
TORSDOF 5
