REMARK  2 active torsions:
REMARK  status: ('A' for Active; 'I' for Inactive)
REMARK    1  A    between atoms: C2_4  and  C3_5 
REMARK       I    between atoms: C3_5  and  N1_7 
REMARK    2  A    between atoms: N1_7  and  C4_8 
ROOT
HETATM    1  O1  UNL     1      -3.012   4.641   0.832  1.00  0.00    -0.258 OA
HETATM    2  C1  UNL     1      -2.495   3.541   0.507  1.00  0.00     0.311 A 
HETATM    3  O2  UNL     1      -1.506   3.399  -0.443  1.00  0.00    -0.296 OA
HETATM    4  C2  UNL     1      -1.155   2.021  -0.548  1.00  0.00     0.260 A 
HETATM    5  C14 UNL     1      -2.082   1.329   0.447  1.00  0.00     0.024 A 
HETATM    6  C15 UNL     1      -2.856   2.249   1.031  1.00  0.00     0.121 A 
HETATM    7  N2  UNL     1      -3.923   2.016   1.958  1.00  0.00    -0.316 N 
HETATM    8  C16 UNL     1      -4.827   0.913   1.835  1.00  0.00     0.300 C 
HETATM    9  O4  UNL     1      -5.703   0.732   2.724  1.00  0.00    -0.266 OA
HETATM   10  C17 UNL     1      -4.748  -0.021   0.662  1.00  0.00     0.350 C 
HETATM   11  F1  UNL     1      -4.788   0.705  -0.516  1.00  0.00    -0.190 F 
HETATM   12  F2  UNL     1      -5.853  -0.861   0.668  1.00  0.00    -0.190 F 
HETATM   13  C18 UNL     1      -3.454  -0.803   0.735  1.00  0.00     0.034 A 
HETATM   14  C19 UNL     1      -3.492  -2.202   0.912  1.00  0.00     0.014 A 
HETATM   15  C20 UNL     1      -2.315  -2.944   0.995  1.00  0.00     0.001 A 
HETATM   16  C21 UNL     1      -1.082  -2.305   0.920  1.00  0.00     0.001 A 
HETATM   17  C22 UNL     1      -1.020  -0.922   0.754  1.00  0.00     0.013 A 
HETATM   18  C23 UNL     1      -2.193  -0.149   0.645  1.00  0.00    -0.012 A 
HETATM   19  H10 UNL     1      -4.149   2.766   2.649  1.00  0.00     0.169 HD
ENDROOT
BRANCH   4  20
HETATM   20  C3  UNL     1       0.298   1.858  -0.212  1.00  0.00     0.256 C 
HETATM   21  O3  UNL     1       0.746   2.345   0.862  1.00  0.00    -0.270 OA
HETATM   22  N1  UNL     1       1.157   1.107  -1.084  1.00  0.00    -0.324 N 
HETATM   23  H2  UNL     1       0.739   0.657  -1.929  1.00  0.00     0.169 HD
BRANCH  22  24
HETATM   24  C4  UNL     1       2.536   0.841  -0.775  1.00  0.00     0.045 A 
HETATM   25  C5  UNL     1       3.391   1.910  -0.462  1.00  0.00     0.030 A 
HETATM   26  C6  UNL     1       4.741   1.687  -0.191  1.00  0.00     0.003 A 
HETATM   27  C7  UNL     1       5.261   0.394  -0.231  1.00  0.00     0.012 A 
HETATM   28  C8  UNL     1       4.431  -0.692  -0.542  1.00  0.00    -0.024 A 
HETATM   29  C9  UNL     1       4.957  -1.994  -0.573  1.00  0.00     0.012 A 
HETATM   30  C13 UNL     1       3.055  -0.476  -0.820  1.00  0.00     0.001 A 
HETATM   31  C10 UNL     1       4.130  -3.079  -0.867  1.00  0.00     0.001 A 
HETATM   32  C11 UNL     1       2.775  -2.877  -1.129  1.00  0.00     0.001 A 
HETATM   33  C12 UNL     1       2.237  -1.588  -1.107  1.00  0.00     0.014 A 
ENDBRANCH  22  24
ENDBRANCH   4  20
TORSDOF 2
