REMARK  6 active torsions:
REMARK  status: ('A' for Active; 'I' for Inactive)
REMARK       I    between atoms: C1_2  and  N1_3 
REMARK    1  A    between atoms: C1_2  and  C26_31 
REMARK       I    between atoms: N1_3  and  C2_4 
REMARK    2  A    between atoms: C2_4  and  C3_6 
REMARK    3  A    between atoms: C5_8  and  C25_30 
REMARK    4  A    between atoms: C6_9  and  C8_13 
REMARK    5  A    between atoms: C13_18  and  C14_19 
REMARK    6  A    between atoms: C19_24  and  C20_25 
ROOT
HETATM    1  C3  UNL     1      -0.795   0.598   0.571  1.00  0.00     0.104 C 
HETATM    2  C4  UNL     1      -2.093   0.850   1.024  1.00  0.00     0.048 C 
HETATM    3  C5  UNL     1      -3.215   0.589   0.216  1.00  0.00    -0.006 C 
HETATM    4  C6  UNL     1      -3.009  -0.280  -0.868  1.00  0.00     0.054 C 
HETATM    5  C7  UNL     1      -1.703  -0.376  -1.398  1.00  0.00     0.258 C 
HETATM    6  O3  UNL     1      -1.503  -0.972  -2.500  1.00  0.00    -0.267 OA
HETATM    7  N2  UNL     1      -0.645   0.133  -0.700  1.00  0.00    -0.318 N 
HETATM    8  H3  UNL     1       0.319  -0.023  -1.085  1.00  0.00     0.169 HD
ENDROOT
BRANCH   1   9
HETATM    9  C2  UNL     1       0.362   0.977   1.437  1.00  0.00     0.275 C 
HETATM   10  N1  UNL     1       1.738   0.831   1.013  1.00  0.00    -0.288 N 
HETATM   11  C1  UNL     1       2.835   0.846   1.925  1.00  0.00     0.259 C 
HETATM   12  H1  UNL     1       1.973   0.736  -0.001  1.00  0.00     0.172 HD
HETATM   13  O1  UNL     1       2.638   0.966   3.167  1.00  0.00    -0.267 OA
HETATM   14  O2  UNL     1       0.129   1.515   2.555  1.00  0.00    -0.266 OA
BRANCH  11  15
HETATM   15  C26 UNL     1       4.221   0.761   1.414  1.00  0.00     0.043 C 
HETATM   16  C27 UNL     1       4.799   1.913   1.005  1.00  0.00     0.018 C 
HETATM   17  C28 UNL     1       6.166   2.202   0.469  1.00  0.00     0.002 C 
HETATM   18  C29 UNL     1       7.353   1.594   0.659  1.00  0.00     0.009 C 
HETATM   19  C30 UNL     1       7.567   0.305   1.336  1.00  0.00    -0.036 C 
HETATM   20  C31 UNL     1       7.441   0.184   2.670  1.00  0.00     0.123 C 
HETATM   21  C41 UNL     1       7.811  -0.907   0.474  1.00  0.00     0.079 C 
HETATM   22  N3  UNL     1       7.295  -1.117   3.251  1.00  0.00    -0.273 NA
HETATM   23  C32 UNL     1       6.211  -1.827   3.109  1.00  0.00     0.117 C 
HETATM   24  C33 UNL     1       4.959  -1.207   2.625  1.00  0.00     0.032 C 
HETATM   25  C34 UNL     1       4.893  -0.559   1.445  1.00  0.00    -0.008 C 
HETATM   26  C35 UNL     1       5.251  -1.212   0.156  1.00  0.00    -0.018 A 
HETATM   27  C36 UNL     1       4.180  -1.626  -0.675  1.00  0.00     0.013 A 
HETATM   28  C40 UNL     1       6.592  -1.320  -0.325  1.00  0.00    -0.043 A 
HETATM   29  C37 UNL     1       4.428  -2.161  -1.944  1.00  0.00     0.001 A 
HETATM   30  C38 UNL     1       5.744  -2.316  -2.386  1.00  0.00     0.001 A 
HETATM   31  C39 UNL     1       6.812  -1.918  -1.578  1.00  0.00     0.008 A 
ENDBRANCH  11  15
ENDBRANCH   1   9
BRANCH   3  32
HETATM   32  C25 UNL     1      -4.565   1.151   0.611  1.00  0.00    -0.014 A 
HETATM   33  C20 UNL     1      -5.498   1.665  -0.359  1.00  0.00    -0.014 A 
HETATM   34  C21 UNL     1      -6.578   2.445   0.095  1.00  0.00     0.013 A 
HETATM   35  C22 UNL     1      -6.723   2.783   1.437  1.00  0.00     0.001 A 
HETATM   36  C23 UNL     1      -5.872   2.245   2.383  1.00  0.00     0.001 A 
HETATM   37  C24 UNL     1      -4.840   1.392   1.987  1.00  0.00     0.013 A 
BRANCH  33  38
HETATM   38  C19 UNL     1      -5.471   1.372  -1.817  1.00  0.00    -0.014 A 
HETATM   39  C14 UNL     1      -5.573   0.039  -2.289  1.00  0.00    -0.014 A 
HETATM   40  C15 UNL     1      -5.943  -0.204  -3.626  1.00  0.00     0.013 A 
HETATM   41  C16 UNL     1      -6.244   0.853  -4.493  1.00  0.00     0.001 A 
HETATM   42  C17 UNL     1      -6.078   2.167  -4.050  1.00  0.00     0.001 A 
HETATM   43  C18 UNL     1      -5.671   2.430  -2.735  1.00  0.00     0.013 A 
BRANCH  39  44
HETATM   44  C13 UNL     1      -5.307  -1.111  -1.415  1.00  0.00    -0.014 C 
HETATM   45  C8  UNL     1      -3.982  -1.389  -1.034  1.00  0.00    -0.009 C 
HETATM   46  C9  UNL     1      -3.698  -2.642  -0.445  1.00  0.00     0.013 C 
HETATM   47  C10 UNL     1      -4.734  -3.523  -0.099  1.00  0.00     0.001 C 
HETATM   48  C11 UNL     1      -6.056  -3.145  -0.328  1.00  0.00     0.001 C 
HETATM   49  C12 UNL     1      -6.341  -1.962  -1.004  1.00  0.00     0.013 C 
ENDBRANCH  39  44
ENDBRANCH  33  38
ENDBRANCH   3  32
TORSDOF 6
