REMARK  6 active torsions:
REMARK  status: ('A' for Active; 'I' for Inactive)
REMARK    1  A    between atoms: C1_2  and  C2_3 
REMARK       I    between atoms: C1_2  and  N2_24 
REMARK    2  A    between atoms: N2_24  and  C21_25 
REMARK    3  A    between atoms: C24_28  and  C44_48 
REMARK    4  A    between atoms: C25_29  and  C27_31 
REMARK    5  A    between atoms: C32_36  and  C33_37 
REMARK    6  A    between atoms: C38_42  and  C39_43 
ROOT
HETATM    1  O1  UNL     1      -0.751  -0.926  -1.830  1.00  0.00    -0.266 OA
HETATM    2  C1  UNL     1      -0.833  -0.032  -0.943  1.00  0.00     0.272 C 
HETATM    3  N2  UNL     1       0.330   0.336  -0.183  1.00  0.00    -0.322 N 
HETATM    4  H15 UNL     1       0.181   0.779   0.752  1.00  0.00     0.169 HD
ENDROOT
BRANCH   3   5
HETATM    5  C21 UNL     1       1.670  -0.061  -0.520  1.00  0.00     0.035 A 
HETATM    6  C22 UNL     1       2.090  -0.163  -1.856  1.00  0.00     0.030 A 
HETATM    7  C23 UNL     1       3.400  -0.544  -2.156  1.00  0.00     0.015 A 
HETATM    8  C24 UNL     1       4.319  -0.807  -1.130  1.00  0.00    -0.014 A 
HETATM    9  C25 UNL     1       3.912  -0.681   0.216  1.00  0.00    -0.012 A 
HETATM   10  C26 UNL     1       2.591  -0.307   0.507  1.00  0.00     0.042 A 
BRANCH   8  11
HETATM   11  C44 UNL     1       5.689  -1.235  -1.488  1.00  0.00    -0.014 A 
HETATM   12  C39 UNL     1       6.810  -0.414  -1.226  1.00  0.00    -0.014 A 
HETATM   13  C40 UNL     1       8.087  -0.843  -1.621  1.00  0.00     0.013 A 
HETATM   14  C41 UNL     1       8.254  -2.074  -2.259  1.00  0.00     0.001 A 
HETATM   15  C42 UNL     1       7.148  -2.884  -2.518  1.00  0.00     0.001 A 
HETATM   16  C43 UNL     1       5.871  -2.465  -2.141  1.00  0.00     0.013 A 
BRANCH  12  17
HETATM   17  C38 UNL     1       6.663   0.910  -0.581  1.00  0.00    -0.014 A 
HETATM   18  C33 UNL     1       6.260   1.035   0.768  1.00  0.00    -0.014 A 
HETATM   19  C34 UNL     1       6.177   2.312   1.350  1.00  0.00     0.013 A 
HETATM   20  C35 UNL     1       6.477   3.452   0.601  1.00  0.00     0.001 A 
HETATM   21  C36 UNL     1       6.873   3.328  -0.732  1.00  0.00     0.001 A 
HETATM   22  C37 UNL     1       6.970   2.064  -1.320  1.00  0.00     0.013 A 
BRANCH  18  23
HETATM   23  C32 UNL     1       5.958  -0.152   1.599  1.00  0.00    -0.014 A 
HETATM   24  C27 UNL     1       4.836  -0.971   1.334  1.00  0.00    -0.014 A 
HETATM   25  C28 UNL     1       4.558  -2.057   2.183  1.00  0.00     0.013 A 
HETATM   26  C29 UNL     1       5.387  -2.334   3.272  1.00  0.00     0.001 A 
HETATM   27  C30 UNL     1       6.495  -1.526   3.532  1.00  0.00     0.001 A 
HETATM   28  C31 UNL     1       6.777  -0.438   2.703  1.00  0.00     0.013 A 
ENDBRANCH  18  23
ENDBRANCH  12  17
ENDBRANCH   8  11
ENDBRANCH   3   5
BRANCH   2  29
HETATM   29  C2  UNL     1      -2.151   0.575  -0.641  1.00  0.00     0.104 A 
HETATM   30  C3  UNL     1      -3.329  -0.116  -0.948  1.00  0.00     0.048 A 
HETATM   31  C4  UNL     1      -4.592   0.424  -0.631  1.00  0.00    -0.011 A 
HETATM   32  C5  UNL     1      -4.632   1.668   0.037  1.00  0.00     0.021 A 
HETATM   33  C20 UNL     1      -5.812  -0.353  -1.045  1.00  0.00    -0.014 C 
HETATM   34  C6  UNL     1      -3.423   2.345   0.309  1.00  0.00     0.253 A 
HETATM   35  C7  UNL     1      -5.912   2.155   0.638  1.00  0.00     0.050 C 
HETATM   36  O2  UNL     1      -3.432   3.459   0.902  1.00  0.00    -0.268 OA
HETATM   37  N1  UNL     1      -2.231   1.800  -0.051  1.00  0.00    -0.319 N 
HETATM   38  H2  UNL     1      -1.360   2.343   0.145  1.00  0.00     0.169 HD
HETATM   39  C8  UNL     1      -6.243   1.277   1.856  1.00  0.00     0.044 C 
HETATM   40  C9  UNL     1      -7.560   0.610   1.641  1.00  0.00    -0.047 A 
HETATM   41  C10 UNL     1      -8.676   1.111   2.339  1.00  0.00     0.008 A 
HETATM   42  C14 UNL     1      -7.730  -0.414   0.671  1.00  0.00    -0.019 A 
HETATM   43  C11 UNL     1      -9.954   0.621   2.088  1.00  0.00     0.001 A 
HETATM   44  C12 UNL     1     -10.142  -0.355   1.117  1.00  0.00     0.001 A 
HETATM   45  C13 UNL     1      -9.050  -0.860   0.412  1.00  0.00     0.013 A 
HETATM   46  C15 UNL     1      -6.604  -1.068  -0.094  1.00  0.00    -0.014 C 
HETATM   47  C16 UNL     1      -6.769  -2.455  -0.308  1.00  0.00     0.013 C 
HETATM   48  C17 UNL     1      -6.516  -3.017  -1.560  1.00  0.00     0.001 C 
HETATM   49  C18 UNL     1      -6.080  -2.208  -2.604  1.00  0.00     0.001 C 
HETATM   50  C19 UNL     1      -5.736  -0.880  -2.352  1.00  0.00     0.013 C 
ENDBRANCH   2  29
TORSDOF 6
