REMARK  4 active torsions:
REMARK  status: ('A' for Active; 'I' for Inactive)
REMARK    1  A    between atoms: N1_1  and  C1_2 
REMARK    2  A    between atoms: C4_5  and  N2_6 
REMARK       I    between atoms: N2_6  and  C5_7 
REMARK    3  A    between atoms: C5_7  and  C6_9 
REMARK    4  A    between atoms: C15_20  and  C16_21 
ROOT
HETATM    1  N2  UNL     1      -1.069  -1.436  -0.081  1.00  0.00    -0.321 N 
HETATM    2  C5  UNL     1       0.015  -1.735   0.816  1.00  0.00     0.256 C 
HETATM    3  O1  UNL     1      -0.170  -2.519   1.788  1.00  0.00    -0.267 OA
HETATM    4  H5  UNL     1      -0.894  -0.825  -0.909  1.00  0.00     0.169 HD
ENDROOT
BRANCH   1   5
HETATM    5  C4  UNL     1      -2.421  -1.869   0.146  1.00  0.00     0.066 A 
HETATM    6  C3  UNL     1      -2.694  -3.220   0.411  1.00  0.00     0.036 A 
HETATM    7  C2  UNL     1      -4.011  -3.663   0.520  1.00  0.00     0.052 A 
HETATM    8  C1  UNL     1      -5.058  -2.754   0.343  1.00  0.00     0.122 A 
HETATM    9  N5  UNL     1      -4.780  -1.450   0.080  1.00  0.00    -0.227 NA
HETATM   10  C15 UNL     1      -3.507  -0.976  -0.014  1.00  0.00     0.114 A 
BRANCH   8  11
HETATM   11  N1  UNL     1      -6.415  -3.186   0.432  1.00  0.00    -0.384 N 
HETATM   12  H1  UNL     1      -6.650  -4.184   0.633  1.00  0.00     0.157 HD
HETATM   13  H2  UNL     1      -7.194  -2.504   0.298  1.00  0.00     0.157 HD
ENDBRANCH   8  11
BRANCH  10  14
HETATM   14  C16 UNL     1      -3.319   0.465  -0.283  1.00  0.00     0.087 A 
HETATM   15  N4  UNL     1      -4.134   1.081  -1.184  1.00  0.00    -0.259 NA
HETATM   16  C17 UNL     1      -4.029   2.408  -1.463  1.00  0.00     0.117 A 
HETATM   17  C18 UNL     1      -3.070   3.185  -0.812  1.00  0.00     0.019 A 
HETATM   18  C19 UNL     1      -2.236   2.588   0.134  1.00  0.00     0.004 A 
HETATM   19  C20 UNL     1      -2.362   1.226   0.411  1.00  0.00     0.034 A 
ENDBRANCH  10  14
ENDBRANCH   1   5
BRANCH   2  20
HETATM   20  C6  UNL     1       1.352  -1.126   0.627  1.00  0.00     0.035 A 
HETATM   21  C7  UNL     1       2.497  -1.794   1.084  1.00  0.00     0.018 A 
HETATM   22  C8  UNL     1       3.763  -1.233   0.907  1.00  0.00     0.013 A 
HETATM   23  C9  UNL     1       3.916   0.013   0.279  1.00  0.00     0.003 A 
HETATM   24  C10 UNL     1       2.758   0.724  -0.128  1.00  0.00     0.077 A 
HETATM   25  C14 UNL     1       5.316   0.543   0.047  1.00  0.00     0.311 C 
HETATM   26  C11 UNL     1       1.496   0.137   0.028  1.00  0.00     0.054 A 
HETATM   27  O2  UNL     1       2.809   2.006  -0.695  1.00  0.00    -0.349 OA
HETATM   28  C12 UNL     1       3.845   2.952  -0.450  1.00  0.00     0.205 C 
HETATM   29  C13 UNL     1       5.118   2.623  -1.242  1.00  0.00     0.296 C 
HETATM   30  N3  UNL     1       5.447   1.191  -1.267  1.00  0.00     0.089 N 
HETATM   31  H13 UNL     1       4.856   0.702  -1.981  1.00  0.00     0.316 HD
ENDBRANCH   2  20
TORSDOF 4
