REMARK  1 active torsions:
REMARK  status: ('A' for Active; 'I' for Inactive)
REMARK    1  A    between atoms: C9_9  and  C10_10 
ROOT
HETATM    1  C10 UNL     1       0.883   0.371  -0.717  1.00  0.00     0.002 A 
HETATM    2  C11 UNL     1       1.056   1.283  -1.766  1.00  0.00     0.014 A 
HETATM    3  C12 UNL     1       2.320   1.751  -2.093  1.00  0.00     0.002 A 
HETATM    4  C13 UNL     1       3.430   1.316  -1.380  1.00  0.00     0.012 A 
HETATM    5  C14 UNL     1       3.303   0.427  -0.296  1.00  0.00     0.005 A 
HETATM    6  C15 UNL     1       2.001  -0.063   0.050  1.00  0.00     0.056 A 
HETATM    7  N1  UNL     1       1.755  -0.916   1.192  1.00  0.00    -0.307 N 
HETATM    8  C16 UNL     1       2.624  -1.951   1.655  1.00  0.00     0.320 C 
HETATM    9  O1  UNL     1       2.163  -3.107   1.848  1.00  0.00    -0.247 OA
HETATM   10  N2  UNL     1       3.972  -1.666   2.009  1.00  0.00    -0.340 N 
HETATM   11  C17 UNL     1       4.514  -0.330   1.841  1.00  0.00     0.166 C 
HETATM   12  C18 UNL     1       4.608   0.002   0.356  1.00  0.00     0.223 C 
HETATM   13  F1  UNL     1       5.137  -1.072  -0.341  1.00  0.00    -0.242 F 
HETATM   14  H11 UNL     1       0.795  -0.937   1.602  1.00  0.00     0.170 HD
HETATM   15  H12 UNL     1       4.570  -2.419   2.419  1.00  0.00     0.164 HD
ENDROOT
BRANCH   1  16
HETATM   16  C9  UNL     1      -0.483  -0.153  -0.480  1.00  0.00    -0.023 A 
HETATM   17  C8  UNL     1      -1.538   0.727  -0.192  1.00  0.00     0.025 A 
HETATM   18  C7  UNL     1      -2.846   0.243   0.021  1.00  0.00    -0.019 A 
HETATM   19  C2  UNL     1      -3.929   1.110   0.321  1.00  0.00    -0.051 A 
HETATM   20  C6  UNL     1      -3.079  -1.156  -0.068  1.00  0.00    -0.025 A 
HETATM   21  C1  UNL     1      -3.749   2.603   0.429  1.00  0.00     0.049 C 
HETATM   22  C3  UNL     1      -5.210   0.567   0.525  1.00  0.00     0.007 A 
HETATM   23  C4  UNL     1      -5.424  -0.808   0.435  1.00  0.00     0.001 A 
HETATM   24  C5  UNL     1      -4.367  -1.667   0.140  1.00  0.00     0.012 A 
HETATM   25  C20 UNL     1      -2.021  -2.027  -0.366  1.00  0.00     0.013 A 
HETATM   26  C19 UNL     1      -0.735  -1.529  -0.574  1.00  0.00     0.013 A 
ENDBRANCH   1  16
TORSDOF 1
