REMARK  3 active torsions:
REMARK  status: ('A' for Active; 'I' for Inactive)
REMARK    1  A    between atoms: C1_2  and  C2_3 
REMARK    2  A    between atoms: C1_2  and  C17_21 
REMARK    3  A    between atoms: N1_6  and  C5_7 
ROOT
HETATM    1  C2  UNL     1      -0.930   1.290  -0.488  1.00  0.00     0.091 C 
HETATM    2  C3  UNL     1       0.363   2.079  -0.822  1.00  0.00     0.037 C 
HETATM    3  C4  UNL     1       1.569   1.210  -1.218  1.00  0.00     0.124 C 
HETATM    4  N1  UNL     1       1.671   0.014  -0.368  1.00  0.00    -0.376 N 
HETATM    5  C10 UNL     1       0.871  -1.188  -0.685  1.00  0.00     0.162 C 
HETATM    6  C11 UNL     1      -0.310  -0.946  -1.616  1.00  0.00    -0.033 A 
HETATM    7  C12 UNL     1      -0.604  -1.933  -2.575  1.00  0.00     0.009 A 
HETATM    8  C13 UNL     1      -1.703  -1.803  -3.423  1.00  0.00     0.001 A 
HETATM    9  C14 UNL     1      -2.536  -0.692  -3.322  1.00  0.00     0.001 A 
HETATM   10  C15 UNL     1      -2.275   0.292  -2.369  1.00  0.00     0.008 A 
HETATM   11  C16 UNL     1      -1.173   0.181  -1.500  1.00  0.00    -0.039 A 
ENDROOT
BRANCH   4  12
HETATM   12  C5  UNL     1       2.604  -0.022   0.746  1.00  0.00     0.034 A 
HETATM   13  C6  UNL     1       2.968   1.156   1.429  1.00  0.00     0.048 A 
HETATM   14  C7  UNL     1       3.858   1.095   2.503  1.00  0.00     0.120 A 
HETATM   15  N2  UNL     1       4.378  -0.097   2.892  1.00  0.00    -0.253 NA
HETATM   16  C8  UNL     1       4.054  -1.254   2.260  1.00  0.00     0.104 A 
HETATM   17 BR1  UNL     1       4.819  -2.898   2.853  1.00  0.00    -0.029 Br
HETATM   18  C9  UNL     1       3.166  -1.240   1.181  1.00  0.00     0.068 A 
ENDBRANCH   4  12
BRANCH   1  19
HETATM   19  C1  UNL     1      -1.007   0.775   0.944  1.00  0.00     0.143 C 
HETATM   20  O1  UNL     1      -0.199   1.160   1.777  1.00  0.00    -0.297 OA
BRANCH  19  21
HETATM   21  C17 UNL     1      -2.075  -0.224   1.352  1.00  0.00     0.103 A 
HETATM   22  C18 UNL     1      -2.519  -0.153   2.800  1.00  0.00     0.181 A 
HETATM   23  O2  UNL     1      -3.823   0.246   2.454  1.00  0.00    -0.389 OA
HETATM   24  C19 UNL     1      -3.495   0.228   1.086  1.00  0.00     0.181 A 
ENDBRANCH  19  21
ENDBRANCH   1  19
TORSDOF 3
