REMARK  1 active torsions:
REMARK  status: ('A' for Active; 'I' for Inactive)
REMARK    1  A    between atoms: C9_10  and  C11_12 
ROOT
HETATM    1  C11 UNL     1      -0.257  -1.122  -1.012  1.00  0.00    -0.023 A 
HETATM    2  C12 UNL     1      -0.319   0.246  -1.337  1.00  0.00     0.011 A 
HETATM    3  C13 UNL     1       0.830   1.034  -1.345  1.00  0.00     0.014 A 
HETATM    4  C14 UNL     1       2.078   0.494  -0.995  1.00  0.00    -0.011 A 
HETATM    5  C15 UNL     1       2.151  -0.864  -0.600  1.00  0.00     0.021 A 
HETATM    6  C16 UNL     1       0.988  -1.653  -0.616  1.00  0.00     0.026 A 
HETATM    7  C17 UNL     1       3.427  -1.507  -0.201  1.00  0.00     0.160 C 
HETATM    8  O2  UNL     1       3.722  -2.627  -0.698  1.00  0.00    -0.292 OA
HETATM    9  C18 UNL     1       4.339  -0.936   0.856  1.00  0.00     0.088 C 
HETATM   10  C19 UNL     1       4.063   0.529   1.197  1.00  0.00     0.047 C 
HETATM   11  C20 UNL     1       4.236   1.395  -0.022  1.00  0.00    -0.046 A 
HETATM   12  C21 UNL     1       5.373   2.213  -0.138  1.00  0.00     0.011 A 
HETATM   13  C22 UNL     1       5.559   3.009  -1.270  1.00  0.00     0.043 A 
HETATM   14  C23 UNL     1       4.619   2.989  -2.301  1.00  0.00     0.117 A 
HETATM   15  F1  UNL     1       4.806   3.757  -3.402  1.00  0.00    -0.206 F 
HETATM   16  C24 UNL     1       3.491   2.171  -2.203  1.00  0.00     0.055 A 
HETATM   17  C25 UNL     1       3.286   1.363  -1.069  1.00  0.00    -0.016 A 
ENDROOT
BRANCH   1  18
HETATM   18  C9  UNL     1      -1.540  -1.963  -0.961  1.00  0.00     0.088 C 
HETATM   19  O1  UNL     1      -2.486  -1.372  -1.869  1.00  0.00    -0.371 OA
HETATM   20  C8  UNL     1      -3.817  -1.307  -1.389  1.00  0.00     0.208 C 
HETATM   21  C6  UNL     1      -3.861  -0.540  -0.102  1.00  0.00    -0.028 A 
HETATM   22  C5  UNL     1      -2.917  -0.887   0.860  1.00  0.00    -0.046 A 
HETATM   23  C7  UNL     1      -4.794   0.473   0.154  1.00  0.00     0.016 A 
HETATM   24  C4  UNL     1      -2.903  -0.235   2.099  1.00  0.00     0.008 A 
HETATM   25  C26 UNL     1      -2.005  -2.029   0.538  1.00  0.00     0.082 C 
HETATM   26  C3  UNL     1      -3.825   0.786   2.358  1.00  0.00     0.007 A 
HETATM   27  C2  UNL     1      -4.766   1.156   1.381  1.00  0.00    -0.061 A 
HETATM   28  C1  UNL     1      -5.782   2.219   1.675  1.00  0.00     0.048 C 
HETATM   29  C10 UNL     1      -1.277  -3.393  -1.477  1.00  0.00     0.052 C 
ENDBRANCH   1  18
TORSDOF 1
