REMARK  3 active torsions:
REMARK  status: ('A' for Active; 'I' for Inactive)
REMARK    1  A    between atoms: C7_7  and  C8_8 
REMARK    2  A    between atoms: C8_8  and  C9_11 
REMARK       I    between atoms: C9_11  and  N1_13 
REMARK    3  A    between atoms: N1_13  and  C10_14 
ROOT
HETATM    1  C10 UNL     1       0.768  -1.718  -0.606  1.00  0.00     0.062 A 
HETATM    2  C11 UNL     1       1.078  -3.046  -0.944  1.00  0.00     0.032 A 
HETATM    3  C12 UNL     1       2.352  -3.557  -0.701  1.00  0.00     0.003 A 
HETATM    4  C13 UNL     1       3.338  -2.748  -0.137  1.00  0.00     0.019 A 
HETATM    5  C14 UNL     1       3.065  -1.408   0.178  1.00  0.00     0.060 A 
HETATM    6  C15 UNL     1       1.770  -0.892  -0.056  1.00  0.00     0.072 A 
HETATM    7  N2  UNL     1       1.450   0.448   0.351  1.00  0.00    -0.381 N 
HETATM    8  C16 UNL     1       0.698   0.665   1.587  1.00  0.00     0.150 C 
HETATM    9  C17 UNL     1       2.006   1.597  -0.371  1.00  0.00     0.142 C 
HETATM   10  C18 UNL     1       3.507   1.435  -0.633  1.00  0.00     0.145 C 
HETATM   11  N3  UNL     1       4.186   0.859   0.534  1.00  0.00    -0.351 N 
HETATM   12  C19 UNL     1       5.004   1.708   1.405  1.00  0.00     0.153 C 
HETATM   13  C20 UNL     1       4.127  -0.562   0.779  1.00  0.00     0.255 C 
HETATM   14  O2  UNL     1       5.000  -1.103   1.513  1.00  0.00    -0.267 OA
ENDROOT
BRANCH   1  15
HETATM   15  N1  UNL     1      -0.539  -1.181  -0.871  1.00  0.00    -0.320 N 
HETATM   16  C9  UNL     1      -1.761  -1.902  -0.645  1.00  0.00     0.300 C 
HETATM   17  O1  UNL     1      -1.744  -3.029  -0.080  1.00  0.00    -0.266 OA
HETATM   18  H8  UNL     1      -0.614  -0.174  -1.145  1.00  0.00     0.169 HD
BRANCH  16  19
HETATM   19  C8  UNL     1      -3.080  -1.271  -1.013  1.00  0.00     0.350 C 
HETATM   20  F1  UNL     1      -4.083  -2.223  -0.941  1.00  0.00    -0.190 F 
HETATM   21  F2  UNL     1      -2.967  -0.855  -2.328  1.00  0.00    -0.190 F 
BRANCH  19  22
HETATM   22  C7  UNL     1      -3.457  -0.095  -0.111  1.00  0.00     0.029 A 
HETATM   23  C2  UNL     1      -4.426   0.871  -0.512  1.00  0.00    -0.049 A 
HETATM   24  C1  UNL     1      -5.134   0.801  -1.842  1.00  0.00     0.049 C 
HETATM   25  C3  UNL     1      -4.729   1.947   0.342  1.00  0.00     0.007 A 
HETATM   26  C4  UNL     1      -4.139   2.047   1.600  1.00  0.00     0.001 A 
HETATM   27  C5  UNL     1      -3.247   1.071   2.030  1.00  0.00     0.001 A 
HETATM   28  C6  UNL     1      -2.918   0.004   1.194  1.00  0.00     0.014 A 
ENDBRANCH  19  22
ENDBRANCH  16  19
ENDBRANCH   1  15
TORSDOF 3
