REMARK  2 active torsions:
REMARK  status: ('A' for Active; 'I' for Inactive)
REMARK    1  A    between atoms: C1_2  and  C2_3 
REMARK    2  A    between atoms: C1_2  and  C21_24 
ROOT
HETATM    1  O1  UNL     1       0.888  -0.565   3.104  1.00  0.00    -0.287 OA
HETATM    2  C1  UNL     1       0.544  -0.679   1.895  1.00  0.00     0.192 C 
ENDROOT
BRANCH   2   3
HETATM    3  C2  UNL     1       1.587  -0.616   0.844  1.00  0.00     0.016 A 
HETATM    4  C3  UNL     1       1.321  -0.017  -0.396  1.00  0.00     0.016 A 
HETATM    5  C4  UNL     1       2.316   0.062  -1.371  1.00  0.00     0.014 A 
HETATM    6  C5  UNL     1       3.601  -0.444  -1.122  1.00  0.00    -0.009 A 
HETATM    7  C6  UNL     1       3.881  -1.043   0.127  1.00  0.00     0.044 A 
HETATM    8  C20 UNL     1       4.607  -0.391  -2.208  1.00  0.00    -0.014 A 
HETATM    9  C7  UNL     1       2.870  -1.124   1.098  1.00  0.00     0.033 A 
HETATM   10  C8  UNL     1       5.201  -1.635   0.431  1.00  0.00     0.257 C 
HETATM   11  O2  UNL     1       5.266  -2.852   0.752  1.00  0.00    -0.267 OA
HETATM   12  N1  UNL     1       6.400  -0.846   0.433  1.00  0.00    -0.322 N 
HETATM   13  C9  UNL     1       6.373   0.582   0.325  1.00  0.00     0.046 A 
HETATM   14  H4  UNL     1       7.274  -1.289   0.794  1.00  0.00     0.169 HD
HETATM   15  C10 UNL     1       6.721   1.360   1.438  1.00  0.00     0.030 A 
HETATM   16  C14 UNL     1       6.054   1.211  -0.896  1.00  0.00     0.002 A 
HETATM   17  C11 UNL     1       6.721   2.754   1.352  1.00  0.00     0.002 A 
HETATM   18  C12 UNL     1       6.396   3.380   0.146  1.00  0.00     0.001 A 
HETATM   19  C13 UNL     1       6.073   2.613  -0.977  1.00  0.00     0.014 A 
HETATM   20  C15 UNL     1       5.765   0.414  -2.108  1.00  0.00    -0.013 A 
HETATM   21  C16 UNL     1       6.659   0.476  -3.190  1.00  0.00     0.013 A 
HETATM   22  C17 UNL     1       6.416  -0.258  -4.353  1.00  0.00     0.001 A 
HETATM   23  C18 UNL     1       5.274  -1.053  -4.451  1.00  0.00     0.001 A 
HETATM   24  C19 UNL     1       4.372  -1.116  -3.388  1.00  0.00     0.013 A 
ENDBRANCH   2   3
BRANCH   2  25
HETATM   25  C21 UNL     1      -0.890  -0.877   1.575  1.00  0.00     0.017 A 
HETATM   26  C22 UNL     1      -1.279  -1.706   0.515  1.00  0.00     0.016 A 
HETATM   27  C23 UNL     1      -2.630  -1.934   0.259  1.00  0.00     0.015 A 
HETATM   28  C24 UNL     1      -3.622  -1.335   1.051  1.00  0.00     0.001 A 
HETATM   29  C25 UNL     1      -3.246  -0.479   2.119  1.00  0.00     0.040 A 
HETATM   30  C40 UNL     1      -5.026  -1.640   0.722  1.00  0.00    -0.013 A 
HETATM   31  C26 UNL     1      -1.877  -0.281   2.374  1.00  0.00     0.045 A 
HETATM   32  N2  UNL     1      -4.187   0.151   3.019  1.00  0.00    -0.382 N 
HETATM   33  C27 UNL     1      -5.558   0.576   2.723  1.00  0.00     0.203 C 
HETATM   34  H16 UNL     1      -3.820   0.453   3.951  1.00  0.00     0.160 HD
HETATM   35  C28 UNL     1      -5.590   1.731   1.752  1.00  0.00     0.177 C 
HETATM   36  O3  UNL     1      -6.054   2.827   2.170  1.00  0.00    -0.290 OA
HETATM   37  C29 UNL     1      -5.084   1.672   0.350  1.00  0.00     0.022 A 
HETATM   38  C30 UNL     1      -4.498   2.837  -0.182  1.00  0.00     0.016 A 
HETATM   39  C34 UNL     1      -5.227   0.538  -0.496  1.00  0.00    -0.011 A 
HETATM   40  C31 UNL     1      -4.062   2.883  -1.509  1.00  0.00     0.001 A 
HETATM   41  C32 UNL     1      -4.210   1.769  -2.331  1.00  0.00     0.001 A 
HETATM   42  C33 UNL     1      -4.789   0.603  -1.829  1.00  0.00     0.013 A 
HETATM   43  C35 UNL     1      -5.804  -0.734  -0.029  1.00  0.00    -0.014 A 
HETATM   44  C36 UNL     1      -7.129  -1.060  -0.355  1.00  0.00     0.013 A 
HETATM   45  C37 UNL     1      -7.681  -2.271   0.073  1.00  0.00     0.001 A 
HETATM   46  C38 UNL     1      -6.910  -3.169   0.814  1.00  0.00     0.001 A 
HETATM   47  C39 UNL     1      -5.585  -2.859   1.134  1.00  0.00     0.013 A 
ENDBRANCH   2  25
TORSDOF 2
