REMARK  4 active torsions:
REMARK  status: ('A' for Active; 'I' for Inactive)
REMARK    1  A    between atoms: O1_2  and  C2_3 
REMARK    2  A    between atoms: C2_3  and  C3_5 
REMARK    3  A    between atoms: C3_5  and  C4_6 
REMARK    4  A    between atoms: C3_5  and  N1_16 
ROOT
HETATM    1  C3  UNL     1      -0.715  -1.376  -0.715  1.00  0.00     0.356 C 
ENDROOT
BRANCH   1   2
HETATM    2  C2  UNL     1      -1.293  -2.614  -0.076  1.00  0.00     0.297 C 
HETATM    3  O2  UNL     1      -2.263  -3.200  -0.631  1.00  0.00    -0.262 OA
BRANCH   2   4
HETATM    4  O1  UNL     1      -0.755  -3.114   1.115  1.00  0.00    -0.325 OA
HETATM    5  C1  UNL     1      -1.275  -4.266   1.767  1.00  0.00     0.213 C 
ENDBRANCH   2   4
ENDBRANCH   1   2
BRANCH   1   6
HETATM    6  C4  UNL     1      -1.772  -0.274  -0.741  1.00  0.00    -0.004 A 
HETATM    7  C5  UNL     1      -2.287   0.104  -1.996  1.00  0.00     0.011 A 
HETATM    8  C6  UNL     1      -3.241   1.112  -2.111  1.00  0.00     0.002 A 
HETATM    9  C7  UNL     1      -3.710   1.768  -0.977  1.00  0.00     0.012 A 
HETATM   10  C8  UNL     1      -3.230   1.418   0.291  1.00  0.00    -0.025 A 
HETATM   11  C9  UNL     1      -3.714   2.089   1.425  1.00  0.00     0.012 A 
HETATM   12  C13 UNL     1      -2.256   0.388   0.428  1.00  0.00    -0.017 A 
HETATM   13  C10 UNL     1      -3.248   1.753   2.694  1.00  0.00     0.001 A 
HETATM   14  C11 UNL     1      -2.299   0.744   2.845  1.00  0.00     0.001 A 
HETATM   15  C12 UNL     1      -1.806   0.066   1.728  1.00  0.00     0.013 A 
ENDBRANCH   1   6
BRANCH   1  16
HETATM   16  N1  UNL     1       0.506  -0.918  -0.007  1.00  0.00     0.112 N 
HETATM   17  C14 UNL     1       1.664  -1.802  -0.237  1.00  0.00     0.281 A 
HETATM   18  C15 UNL     1       2.444  -0.734  -0.989  1.00  0.00     0.047 A 
HETATM   19  C16 UNL     1       3.754  -0.310  -0.292  1.00  0.00     0.008 C 
HETATM   20  C21 UNL     1       1.212   0.148  -0.743  1.00  0.00     0.230 A 
HETATM   21  C17 UNL     1       4.377   0.970  -0.882  1.00  0.00     0.000 C 
HETATM   22  C18 UNL     1       3.378   1.992  -1.457  1.00  0.00     0.000 C 
HETATM   23  C19 UNL     1       2.311   2.477  -0.459  1.00  0.00     0.002 C 
HETATM   24  C20 UNL     1       1.419   1.380   0.161  1.00  0.00     0.036 C 
ENDBRANCH   1  16
TORSDOF 4
