REMARK  5 active torsions:
REMARK  status: ('A' for Active; 'I' for Inactive)
REMARK    1  A    between atoms: O1_2  and  C2_3 
REMARK    2  A    between atoms: C5_6  and  C6_7 
REMARK       I    between atoms: C6_7  and  N1_9 
REMARK    3  A    between atoms: N1_9  and  C7_10 
REMARK       I    between atoms: N2_14  and  C11_15 
REMARK       I    between atoms: C11_15  and  N3_16 
REMARK    4  A    between atoms: C18_24  and  O4_25 
REMARK    5  A    between atoms: O4_25  and  C19_26 
ROOT
HETATM    1  C6  UNL     1      -1.159   0.540  -0.875  1.00  0.00     0.255 C 
HETATM    2  O2  UNL     1      -0.945   0.710  -2.106  1.00  0.00    -0.268 OA
HETATM    3  N1  UNL     1      -0.052   0.404   0.033  1.00  0.00    -0.348 N 
HETATM    4  H6  UNL     1      -0.235   0.093   1.014  1.00  0.00     0.163 HD
ENDROOT
BRANCH   3   5
HETATM    5  C7  UNL     1       1.345   0.642  -0.356  1.00  0.00     0.120 C 
HETATM    6  C8  UNL     1       1.877   1.799   0.518  1.00  0.00     0.032 C 
HETATM    7  C9  UNL     1       3.069   2.541  -0.108  1.00  0.00     0.023 C 
HETATM    8  C10 UNL     1       4.170   1.595  -0.588  1.00  0.00     0.134 C 
HETATM    9  N2  UNL     1       4.309   0.471   0.340  1.00  0.00    -0.300 N 
HETATM   10  C11 UNL     1       5.119   0.610   1.527  1.00  0.00     0.320 C 
HETATM   11  C12 UNL     1       3.531  -0.719   0.104  1.00  0.00     0.047 A 
HETATM   12  N3  UNL     1       4.878  -0.198   2.682  1.00  0.00    -0.352 N 
HETATM   13  O3  UNL     1       6.037   1.472   1.566  1.00  0.00    -0.247 OA
HETATM   14  H14 UNL     1       5.493  -0.108   3.521  1.00  0.00     0.160 HD
HETATM   15  H15 UNL     1       4.057  -0.839   2.736  1.00  0.00     0.160 HD
HETATM   16  C13 UNL     1       4.185  -1.963   0.158  1.00  0.00     0.030 A 
HETATM   17  C17 UNL     1       2.147  -0.664  -0.246  1.00  0.00    -0.009 A 
HETATM   18  C14 UNL     1       3.507  -3.141  -0.146  1.00  0.00     0.002 A 
HETATM   19  C15 UNL     1       2.172  -3.094  -0.532  1.00  0.00     0.001 A 
HETATM   20  C16 UNL     1       1.504  -1.872  -0.597  1.00  0.00     0.011 A 
ENDBRANCH   3   5
BRANCH   1  21
HETATM   21  C5  UNL     1      -2.554   0.473  -0.377  1.00  0.00     0.067 A 
HETATM   22  C4  UNL     1      -2.864   0.966   0.901  1.00  0.00     0.023 A 
HETATM   23  C3  UNL     1      -4.174   0.932   1.380  1.00  0.00     0.040 A 
HETATM   24  C2  UNL     1      -5.210   0.411   0.585  1.00  0.00     0.092 A 
HETATM   25  C20 UNL     1      -4.911  -0.083  -0.694  1.00  0.00     0.101 A 
HETATM   26  C18 UNL     1      -3.588  -0.066  -1.173  1.00  0.00     0.115 A 
HETATM   27 CL1  UNL     1      -6.211  -0.698  -1.710  1.00  0.00    -0.078 Cl
BRANCH  24  28
HETATM   28  O1  UNL     1      -6.541   0.372   1.030  1.00  0.00    -0.354 OA
HETATM   29  C1  UNL     1      -6.981   0.842   2.301  1.00  0.00     0.210 C 
ENDBRANCH  24  28
BRANCH  26  30
HETATM   30  O4  UNL     1      -3.301  -0.585  -2.439  1.00  0.00    -0.287 OA
BRANCH  30  31
HETATM   31  C19 UNL     1      -3.131  -1.982  -2.654  1.00  0.00     0.505 C 
HETATM   32  F1  UNL     1      -2.917  -2.212  -3.999  1.00  0.00    -0.184 F 
HETATM   33  F2  UNL     1      -2.042  -2.441  -1.936  1.00  0.00    -0.184 F 
ENDBRANCH  30  31
ENDBRANCH  26  30
ENDBRANCH   1  21
TORSDOF 5
