REMARK  4 active torsions:
REMARK  status: ('A' for Active; 'I' for Inactive)
REMARK    1  A    between atoms: C2_2  and  C3_3 
REMARK    2  A    between atoms: C2_2  and  C9_9 
REMARK       I    between atoms: C9_9  and  N1_11 
REMARK    3  A    between atoms: C17_20  and  C18_21 
REMARK    4  A    between atoms: C23_26  and  O3_27 
ROOT
HETATM    1  C9  UNL     1       1.432   0.187   1.428  1.00  0.00     0.228 C 
HETATM    2  O1  UNL     1       2.019  -0.727   2.076  1.00  0.00    -0.273 OA
HETATM    3  N1  UNL     1      -0.012   0.159   1.311  1.00  0.00    -0.344 N 
HETATM    4  C10 UNL     1      -0.782  -0.659   2.259  1.00  0.00     0.167 C 
HETATM    5  C11 UNL     1      -1.132  -1.990   1.643  1.00  0.00    -0.007 A 
HETATM    6  C12 UNL     1      -0.802  -3.162   2.352  1.00  0.00     0.011 A 
HETATM    7  C13 UNL     1      -1.080  -4.423   1.819  1.00  0.00     0.001 A 
HETATM    8  C14 UNL     1      -1.699  -4.533   0.576  1.00  0.00     0.003 A 
HETATM    9  C15 UNL     1      -2.040  -3.382  -0.138  1.00  0.00     0.037 A 
HETATM   10  C16 UNL     1      -1.769  -2.106   0.376  1.00  0.00     0.077 A 
HETATM   11  O2  UNL     1      -2.142  -1.014  -0.430  1.00  0.00    -0.339 OA
HETATM   12  C17 UNL     1      -2.122   0.370  -0.074  1.00  0.00     0.182 C 
HETATM   13  C24 UNL     1      -0.668   0.833   0.175  1.00  0.00     0.163 C 
ENDROOT
BRANCH   1  14
HETATM   14  C2  UNL     1       2.264   1.321   0.861  1.00  0.00     0.107 C 
HETATM   15  C1  UNL     1       2.680   2.285   1.980  1.00  0.00     0.025 C 
BRANCH  14  16
HETATM   16  C3  UNL     1       3.460   0.782   0.089  1.00  0.00    -0.045 A 
HETATM   17  C4  UNL     1       3.438   0.781  -1.320  1.00  0.00     0.008 A 
HETATM   18  C5  UNL     1       4.517   0.266  -2.048  1.00  0.00     0.001 A 
HETATM   19  C6  UNL     1       5.625  -0.265  -1.381  1.00  0.00     0.000 A 
HETATM   20  C7  UNL     1       5.654  -0.284   0.016  1.00  0.00     0.001 A 
HETATM   21  C8  UNL     1       4.579   0.230   0.750  1.00  0.00     0.008 A 
ENDBRANCH  14  16
ENDBRANCH   1  14
BRANCH  12  22
HETATM   22  C18 UNL     1      -2.853   1.144  -1.168  1.00  0.00     0.006 A 
HETATM   23  C19 UNL     1      -2.169   1.983  -2.081  1.00  0.00     0.012 A 
HETATM   24  C20 UNL     1      -2.860   2.668  -3.083  1.00  0.00     0.001 A 
HETATM   25  C21 UNL     1      -4.240   2.522  -3.210  1.00  0.00     0.003 A 
HETATM   26  C22 UNL     1      -4.935   1.690  -2.333  1.00  0.00     0.037 A 
HETATM   27  C23 UNL     1      -4.260   0.994  -1.322  1.00  0.00     0.074 A 
BRANCH  27  28
HETATM   28  O3  UNL     1      -5.020   0.155  -0.500  1.00  0.00    -0.360 OA
HETATM   29  H21 UNL     1      -4.627  -0.429   0.226  1.00  0.00     0.217 HD
ENDBRANCH  27  28
ENDBRANCH  12  22
TORSDOF 4
