REMARK  4 active torsions:
REMARK  status: ('A' for Active; 'I' for Inactive)
REMARK    1  A    between atoms: C1_2  and  C2_3 
REMARK       I    between atoms: C1_2  and  N1_13 
REMARK    2  A    between atoms: C16_18  and  O2_19 
REMARK    3  A    between atoms: C18_21  and  C19_22 
REMARK    4  A    between atoms: C19_22  and  O3_23 
ROOT
HETATM    1  O1  UNL     1      -0.477  -1.069   2.463  1.00  0.00    -0.267 OA
HETATM    2  C1  UNL     1       0.028  -0.772   1.345  1.00  0.00     0.254 C 
HETATM    3  N1  UNL     1      -0.682  -1.097   0.132  1.00  0.00    -0.336 N 
HETATM    4  C12 UNL     1      -1.924  -1.848   0.110  1.00  0.00     0.088 C 
HETATM    5  C13 UNL     1      -2.043  -2.364  -1.324  1.00  0.00     0.027 C 
HETATM    6  C14 UNL     1      -1.189  -1.419  -2.171  1.00  0.00     0.030 C 
HETATM    7  C15 UNL     1      -0.423  -0.518  -1.178  1.00  0.00     0.116 C 
HETATM    8  C16 UNL     1      -0.867   0.972  -1.195  1.00  0.00     0.141 C 
HETATM    9  C17 UNL     1      -2.081   1.305  -0.281  1.00  0.00     0.040 C 
HETATM   10  C18 UNL     1      -3.292   0.336  -0.389  1.00  0.00     0.013 C 
HETATM   11  C20 UNL     1      -3.111  -0.935   0.497  1.00  0.00     0.032 C 
ENDROOT
BRANCH   2  12
HETATM   12  C2  UNL     1       1.327  -0.077   1.320  1.00  0.00     0.033 A 
HETATM   13  C3  UNL     1       1.505   1.096   2.067  1.00  0.00     0.018 A 
HETATM   14  C4  UNL     1       2.729   1.771   2.048  1.00  0.00     0.013 A 
HETATM   15  C5  UNL     1       3.798   1.269   1.292  1.00  0.00    -0.026 A 
HETATM   16  C6  UNL     1       5.031   1.939   1.263  1.00  0.00     0.012 A 
HETATM   17  C10 UNL     1       3.633   0.071   0.556  1.00  0.00    -0.025 A 
HETATM   18  C7  UNL     1       6.094   1.421   0.516  1.00  0.00     0.001 A 
HETATM   19  C8  UNL     1       5.933   0.235  -0.206  1.00  0.00     0.001 A 
HETATM   20  C9  UNL     1       4.709  -0.439  -0.188  1.00  0.00     0.012 A 
HETATM   21  C11 UNL     1       2.399  -0.597   0.579  1.00  0.00     0.029 A 
ENDBRANCH   2  12
BRANCH   8  22
HETATM   22  O2  UNL     1      -1.106   1.403  -2.512  1.00  0.00    -0.393 OA
HETATM   23  H15 UNL     1      -1.046   2.393  -2.511  1.00  0.00     0.210 HD
ENDBRANCH   8  22
BRANCH  10  24
HETATM   24  C19 UNL     1      -4.580   1.076   0.027  1.00  0.00     0.168 C 
BRANCH  24  25
HETATM   25  O3  UNL     1      -5.710   0.275  -0.205  1.00  0.00    -0.400 OA
HETATM   26  H21 UNL     1      -5.992  -0.093   0.673  1.00  0.00     0.209 HD
ENDBRANCH  24  25
ENDBRANCH  10  24
TORSDOF 4
