REMARK  5 active torsions:
REMARK  status: ('A' for Active; 'I' for Inactive)
REMARK    1  A    between atoms: C7_8  and  C8_9 
REMARK    2  A    between atoms: C8_9  and  C9_10 
REMARK    3  A    between atoms: C9_10  and  N1_11 
REMARK    4  A    between atoms: C14_16  and  N2_17 
REMARK       I    between atoms: N2_17  and  C15_18 
REMARK    5  A    between atoms: C15_18  and  C16_20 
ROOT
HETATM    1  N1  UNL     1      -0.998  -0.518   0.266  1.00  0.00     0.091 N 
HETATM    2  C10 UNL     1      -1.564   0.143   1.472  1.00  0.00     0.273 C 
HETATM    3  C11 UNL     1      -1.417   1.689   1.439  1.00  0.00     0.042 C 
HETATM    4  C12 UNL     1       0.001   2.212   1.103  1.00  0.00     0.062 C 
HETATM    5  C13 UNL     1       1.093   1.399   1.740  1.00  0.00     0.053 C 
HETATM    6  C14 UNL     1       1.213   0.723   0.398  1.00  0.00     0.121 C 
HETATM    7  C22 UNL     1       0.389   1.792  -0.305  1.00  0.00     0.161 C 
HETATM    8  O2  UNL     1       0.140   2.133  -1.450  1.00  0.00    -0.295 OA
HETATM    9  C23 UNL     1       0.486  -0.648   0.330  1.00  0.00     0.311 C 
ENDROOT
BRANCH   1  10
HETATM   10  C9  UNL     1      -1.624  -1.848   0.048  1.00  0.00     0.277 C 
BRANCH  10  11
HETATM   11  C8  UNL     1      -2.688  -1.779  -1.058  1.00  0.00     0.069 C 
BRANCH  11  12
HETATM   12  C7  UNL     1      -3.909  -0.990  -0.635  1.00  0.00    -0.048 A 
HETATM   13  C2  UNL     1      -4.153   0.338  -1.073  1.00  0.00    -0.056 A 
HETATM   14  C1  UNL     1      -3.246   1.031  -2.054  1.00  0.00     0.049 C 
HETATM   15  C3  UNL     1      -5.296   1.016  -0.612  1.00  0.00     0.010 A 
HETATM   16  C4  UNL     1      -6.177   0.401   0.278  1.00  0.00     0.043 A 
HETATM   17  C5  UNL     1      -5.936  -0.901   0.713  1.00  0.00     0.117 A 
HETATM   18  F1  UNL     1      -6.795  -1.496   1.578  1.00  0.00    -0.206 F 
HETATM   19  C6  UNL     1      -4.812  -1.593   0.260  1.00  0.00     0.049 A 
ENDBRANCH  11  12
ENDBRANCH  10  11
ENDBRANCH   1  10
BRANCH   6  20
HETATM   20  N2  UNL     1       2.595   0.666  -0.094  1.00  0.00    -0.339 N 
HETATM   21  C15 UNL     1       3.614  -0.115   0.555  1.00  0.00     0.252 C 
HETATM   22  O1  UNL     1       3.392  -0.605   1.696  1.00  0.00    -0.268 OA
HETATM   23  H18 UNL     1       2.842   1.218  -0.946  1.00  0.00     0.164 HD
BRANCH  21  24
HETATM   24  C16 UNL     1       4.932  -0.338  -0.086  1.00  0.00     0.032 A 
HETATM   25  C17 UNL     1       6.060  -0.622   0.706  1.00  0.00     0.017 A 
HETATM   26  C18 UNL     1       7.307  -0.841   0.112  1.00  0.00     0.001 A 
HETATM   27  C19 UNL     1       7.440  -0.786  -1.277  1.00  0.00     0.000 A 
HETATM   28  C20 UNL     1       6.326  -0.519  -2.075  1.00  0.00     0.001 A 
HETATM   29  C21 UNL     1       5.077  -0.298  -1.486  1.00  0.00     0.017 A 
ENDBRANCH  21  24
ENDBRANCH   6  20
TORSDOF 5
