REMARK  3 active torsions:
REMARK  status: ('A' for Active; 'I' for Inactive)
REMARK    1  A    between atoms: C1_2  and  C2_3 
REMARK       I    between atoms: C1_2  and  N2_11 
REMARK    2  A    between atoms: C2_3  and  N1_4 
REMARK       I    between atoms: N3_15  and  C11_16 
REMARK    3  A    between atoms: C11_16  and  C12_18 
ROOT
HETATM    1  O1  UNL     1      -2.269  -0.561  -1.074  1.00  0.00    -0.272 OA
HETATM    2  C1  UNL     1      -2.042  -0.626   0.164  1.00  0.00     0.238 C 
HETATM    3  N2  UNL     1      -1.303  -1.746   0.700  1.00  0.00    -0.349 N 
HETATM    4  C8  UNL     1      -0.645  -1.633   2.019  1.00  0.00     0.127 C 
HETATM    5  C9  UNL     1       0.591  -2.538   2.162  1.00  0.00     0.040 C 
HETATM    6  C10 UNL     1       1.670  -2.225   1.111  1.00  0.00     0.127 C 
HETATM    7  N3  UNL     1       1.126  -2.192  -0.259  1.00  0.00    -0.346 N 
HETATM    8  C11 UNL     1       1.389  -1.083  -1.155  1.00  0.00     0.253 C 
HETATM    9  O3  UNL     1       0.620  -0.871  -2.136  1.00  0.00    -0.267 OA
HETATM   10  C20 UNL     1       0.179  -3.242  -0.667  1.00  0.00     0.146 C 
HETATM   11  C21 UNL     1      -1.227  -3.002  -0.070  1.00  0.00     0.145 C 
ENDROOT
BRANCH   2  12
HETATM   12  C2  UNL     1      -2.499   0.507   1.046  1.00  0.00     0.234 C 
BRANCH  12  13
HETATM   13  N1  UNL     1      -3.665   1.191   0.464  1.00  0.00    -0.316 N 
HETATM   14  C3  UNL     1      -3.465   2.311  -0.302  1.00  0.00     0.095 A 
HETATM   15  C4  UNL     1      -4.545   2.979  -0.887  1.00  0.00     0.017 A 
HETATM   16  C5  UNL     1      -5.836   2.492  -0.695  1.00  0.00     0.007 A 
HETATM   17  C6  UNL     1      -6.034   1.344   0.072  1.00  0.00     0.074 A 
HETATM   18  C7  UNL     1      -4.934   0.694   0.645  1.00  0.00     0.247 A 
HETATM   19  O2  UNL     1      -5.125  -0.353   1.326  1.00  0.00    -0.268 OA
ENDBRANCH  12  13
ENDBRANCH   2  12
BRANCH   8  20
HETATM   20  C12 UNL     1       2.539  -0.178  -0.962  1.00  0.00     0.032 A 
HETATM   21  C13 UNL     1       3.837  -0.710  -0.657  1.00  0.00     0.017 A 
HETATM   22  C14 UNL     1       4.958   0.128  -0.444  1.00  0.00     0.009 A 
HETATM   23  C15 UNL     1       4.720   1.478  -0.570  1.00  0.00    -0.051 A 
HETATM   24  C16 UNL     1       3.447   2.012  -0.889  1.00  0.00    -0.051 A 
HETATM   25  C19 UNL     1       5.296   2.850  -0.511  1.00  0.00     0.043 A 
HETATM   26  C17 UNL     1       2.335   1.225  -1.099  1.00  0.00     0.024 A 
HETATM   27  C18 UNL     1       3.985   3.397  -0.816  1.00  0.00     0.043 A 
ENDBRANCH   8  20
TORSDOF 3
