REMARK  2 active torsions:
REMARK  status: ('A' for Active; 'I' for Inactive)
REMARK    1  A    between atoms: C9_9  and  C10_10 
REMARK       I    between atoms: C10_10  and  N1_12 
REMARK    2  A    between atoms: N2_16  and  C13_17 
ROOT
HETATM    1  C10 UNL     1      -0.904  -0.769   0.461  1.00  0.00     0.231 C 
HETATM    2  O1  UNL     1      -1.583  -1.124  -0.542  1.00  0.00    -0.273 OA
HETATM    3  N1  UNL     1       0.134  -1.648   0.956  1.00  0.00    -0.308 N 
HETATM    4  C11 UNL     1       0.920  -1.372   2.154  1.00  0.00     0.236 C 
HETATM    5  C12 UNL     1       2.056  -0.475   1.808  1.00  0.00     0.249 C 
HETATM    6  O2  UNL     1       2.455   0.338   2.684  1.00  0.00    -0.271 OA
HETATM    7  N2  UNL     1       2.664  -0.481   0.496  1.00  0.00    -0.244 N 
HETATM    8  C19 UNL     1       2.819  -1.670  -0.327  1.00  0.00     0.267 C 
HETATM    9  O3  UNL     1       3.816  -1.722  -1.101  1.00  0.00    -0.267 OA
HETATM   10  C20 UNL     1       1.864  -2.826  -0.356  1.00  0.00     0.059 A 
HETATM   11  C21 UNL     1       2.256  -4.007  -1.023  1.00  0.00     0.019 A 
HETATM   12  C22 UNL     1       1.381  -5.088  -1.153  1.00  0.00     0.001 A 
HETATM   13  C23 UNL     1       0.093  -5.012  -0.629  1.00  0.00     0.002 A 
HETATM   14  C24 UNL     1      -0.319  -3.858   0.035  1.00  0.00     0.031 A 
HETATM   15  C25 UNL     1       0.553  -2.767   0.176  1.00  0.00     0.053 A 
ENDROOT
BRANCH   1  16
HETATM   16  C9  UNL     1      -1.219   0.561   1.126  1.00  0.00     0.107 C 
HETATM   17  C8  UNL     1      -1.612   1.648   0.098  1.00  0.00     0.058 C 
HETATM   18  C7  UNL     1      -3.045   1.527  -0.390  1.00  0.00    -0.018 A 
HETATM   19  C2  UNL     1      -3.485   2.195  -1.562  1.00  0.00    -0.053 A 
HETATM   20  C6  UNL     1      -3.974   0.776   0.366  1.00  0.00     0.075 A 
HETATM   21  C1  UNL     1      -2.545   3.029  -2.394  1.00  0.00     0.049 C 
HETATM   22  C3  UNL     1      -4.818   2.041  -1.985  1.00  0.00     0.007 A 
HETATM   23  C4  UNL     1      -5.715   1.274  -1.240  1.00  0.00     0.003 A 
HETATM   24  C5  UNL     1      -5.295   0.648  -0.068  1.00  0.00     0.037 A 
HETATM   25  O4  UNL     1      -3.582   0.129   1.542  1.00  0.00    -0.350 OA
HETATM   26  C26 UNL     1      -2.332   0.396   2.173  1.00  0.00     0.190 C 
ENDBRANCH   1  16
BRANCH   7  27
HETATM   27  C13 UNL     1       3.385   0.697   0.089  1.00  0.00     0.084 A 
HETATM   28  C14 UNL     1       2.894   1.496  -0.958  1.00  0.00     0.033 A 
HETATM   29  C15 UNL     1       3.627   2.601  -1.402  1.00  0.00     0.002 A 
HETATM   30  C16 UNL     1       4.852   2.915  -0.804  1.00  0.00     0.003 A 
HETATM   31  C17 UNL     1       5.348   2.122   0.237  1.00  0.00     0.044 A 
HETATM   32  C18 UNL     1       4.622   1.010   0.679  1.00  0.00     0.143 A 
HETATM   33  F1  UNL     1       5.130   0.229   1.667  1.00  0.00    -0.204 F 
ENDBRANCH   7  27
TORSDOF 2
