REMARK  1 active torsions:
REMARK  status: ('A' for Active; 'I' for Inactive)
REMARK    1  A    between atoms: C11_12  and  C12_13 
ROOT
HETATM    1  O1  UNL     1      -1.842   0.047   3.391  1.00  0.00    -0.267 OA
HETATM    2  C1  UNL     1      -1.550   0.017   2.165  1.00  0.00     0.256 C 
HETATM    3  C2  UNL     1      -2.662  -0.022   1.164  1.00  0.00     0.038 A 
HETATM    4  C3  UNL     1      -3.732   0.867   1.382  1.00  0.00     0.017 A 
HETATM    5  C4  UNL     1      -4.811   0.927   0.502  1.00  0.00     0.001 A 
HETATM    6  C5  UNL     1      -4.850   0.094  -0.612  1.00  0.00     0.001 A 
HETATM    7  C6  UNL     1      -3.814  -0.809  -0.846  1.00  0.00     0.008 A 
HETATM    8  C7  UNL     1      -2.711  -0.889   0.025  1.00  0.00    -0.038 A 
HETATM    9  C8  UNL     1      -1.671  -1.953  -0.263  1.00  0.00     0.080 C 
HETATM   10  C9  UNL     1      -0.325  -1.339  -0.320  1.00  0.00    -0.025 A 
HETATM   11  C10 UNL     1       0.778  -1.403  -1.046  1.00  0.00     0.024 A 
HETATM   12  C11 UNL     1       1.420  -0.447  -0.141  1.00  0.00     0.005 A 
HETATM   13  C18 UNL     1       0.306  -0.419   0.586  1.00  0.00     0.053 A 
HETATM   14  N1  UNL     1      -0.172   0.167   1.786  1.00  0.00    -0.322 N 
HETATM   15  H11 UNL     1       0.510   0.549   2.477  1.00  0.00     0.169 HD
ENDROOT
BRANCH  12  16
HETATM   16  C12 UNL     1       2.752   0.186  -0.074  1.00  0.00     0.018 A 
HETATM   17  C13 UNL     1       2.975   1.286   0.773  1.00  0.00     0.057 A 
HETATM   18  C14 UNL     1       4.235   1.890   0.833  1.00  0.00     0.117 A 
HETATM   19  F1  UNL     1       4.438   2.952   1.651  1.00  0.00    -0.206 F 
HETATM   20  C15 UNL     1       5.282   1.404   0.048  1.00  0.00     0.045 A 
HETATM   21  C16 UNL     1       5.070   0.316  -0.802  1.00  0.00     0.046 A 
HETATM   22  C17 UNL     1       3.812  -0.292  -0.869  1.00  0.00     0.127 A 
HETATM   23  F2  UNL     1       3.639  -1.352  -1.698  1.00  0.00    -0.205 F 
ENDBRANCH  12  16
TORSDOF 1
