REMARK  2 active torsions:
REMARK  status: ('A' for Active; 'I' for Inactive)
REMARK    1  A    between atoms: N1_8  and  C8_9 
REMARK       I    between atoms: N2_17  and  C16_18 
REMARK       I    between atoms: C16_18  and  N3_20 
REMARK    2  A    between atoms: C18_22  and  O2_23 
ROOT
HETATM    1  C1  UNL     1      -3.560  -2.960  -3.044  1.00  0.00     0.048 C 
HETATM    2  C2  UNL     1      -2.637  -2.163  -2.170  1.00  0.00    -0.060 A 
HETATM    3  C3  UNL     1      -1.250  -2.294  -2.307  1.00  0.00     0.009 A 
HETATM    4  C4  UNL     1      -0.389  -1.594  -1.460  1.00  0.00     0.033 A 
HETATM    5  C5  UNL     1      -0.903  -0.756  -0.455  1.00  0.00     0.065 A 
HETATM    6  C6  UNL     1      -2.300  -0.601  -0.323  1.00  0.00     0.062 A 
HETATM    7  C7  UNL     1      -3.158  -1.334  -1.167  1.00  0.00     0.038 A 
HETATM    8  N1  UNL     1      -2.820   0.280   0.704  1.00  0.00    -0.343 N 
HETATM    9  C14 UNL     1      -1.927   0.716   1.785  1.00  0.00     0.150 C 
HETATM   10  C15 UNL     1      -0.560   1.085   1.214  1.00  0.00     0.154 C 
HETATM   11  N2  UNL     1      -0.024  -0.042   0.442  1.00  0.00    -0.296 N 
HETATM   12  C16 UNL     1       1.299  -0.524   0.732  1.00  0.00     0.330 C 
HETATM   13  O1  UNL     1       1.466  -1.745   1.005  1.00  0.00    -0.246 OA
HETATM   14  N3  UNL     1       2.428   0.369   0.738  1.00  0.00    -0.297 N 
HETATM   15  C17 UNL     1       2.517   1.490  -0.203  1.00  0.00     0.165 C 
HETATM   16  C18 UNL     1       3.125   1.039  -1.542  1.00  0.00     0.137 C 
HETATM   17  C19 UNL     1       4.608   0.630  -1.413  1.00  0.00     0.038 C 
HETATM   18  C20 UNL     1       4.810  -0.661  -0.605  1.00  0.00     0.043 C 
HETATM   19  C21 UNL     1       4.768  -0.418   0.886  1.00  0.00    -0.031 A 
HETATM   20  C22 UNL     1       5.896  -0.702   1.675  1.00  0.00     0.009 A 
HETATM   21  C23 UNL     1       5.847  -0.548   3.064  1.00  0.00     0.001 A 
HETATM   22  C24 UNL     1       4.671  -0.116   3.679  1.00  0.00     0.002 A 
HETATM   23  C25 UNL     1       3.543   0.171   2.907  1.00  0.00     0.030 A 
HETATM   24  C26 UNL     1       3.586   0.030   1.513  1.00  0.00     0.045 A 
ENDROOT
BRANCH   8  25
HETATM   25  C8  UNL     1      -4.189   0.729   0.704  1.00  0.00     0.034 A 
HETATM   26  C9  UNL     1      -4.989   0.563   1.846  1.00  0.00     0.029 A 
HETATM   27  C10 UNL     1      -6.314   1.011   1.849  1.00  0.00     0.002 A 
HETATM   28  C11 UNL     1      -6.846   1.632   0.716  1.00  0.00     0.000 A 
HETATM   29  C12 UNL     1      -6.053   1.810  -0.421  1.00  0.00     0.002 A 
HETATM   30  C13 UNL     1      -4.727   1.365  -0.428  1.00  0.00     0.029 A 
ENDBRANCH   8  25
BRANCH  16  31
HETATM   31  O2  UNL     1       2.991   2.062  -2.497  1.00  0.00    -0.394 OA
HETATM   32  H19 UNL     1       3.510   2.845  -2.172  1.00  0.00     0.210 HD
ENDBRANCH  16  31
TORSDOF 2
