REMARK  2 active torsions:
REMARK  status: ('A' for Active; 'I' for Inactive)
REMARK    1  A    between atoms: C9_9  and  C10_10 
REMARK       I    between atoms: C10_10  and  N1_12 
REMARK    2  A    between atoms: N1_12  and  C11_13 
ROOT
HETATM    1  C10 UNL     1      -0.777   1.278   0.358  1.00  0.00     0.256 C 
HETATM    2  O1  UNL     1      -0.390   2.309   0.974  1.00  0.00    -0.267 OA
HETATM    3  N1  UNL     1       0.186   0.317  -0.113  1.00  0.00    -0.323 N 
HETATM    4  H10 UNL     1      -0.149  -0.586  -0.514  1.00  0.00     0.169 HD
ENDROOT
BRANCH   3   5
HETATM    5  C11 UNL     1       1.609   0.491  -0.003  1.00  0.00     0.035 A 
HETATM    6  C12 UNL     1       2.213   1.742  -0.233  1.00  0.00     0.030 A 
HETATM    7  C13 UNL     1       3.600   1.890  -0.149  1.00  0.00     0.015 A 
HETATM    8  C14 UNL     1       4.400   0.787   0.162  1.00  0.00    -0.015 A 
HETATM    9  C15 UNL     1       3.808  -0.492   0.359  1.00  0.00     0.028 A 
HETATM   10  C23 UNL     1       5.881   0.880   0.251  1.00  0.00    -0.043 C 
HETATM   11  C16 UNL     1       2.416  -0.627   0.268  1.00  0.00     0.046 A 
HETATM   12  C17 UNL     1       4.704  -1.670   0.605  1.00  0.00     0.189 C 
HETATM   13  O2  UNL     1       4.257  -2.847   0.671  1.00  0.00    -0.287 OA
HETATM   14  C18 UNL     1       6.158  -1.395   0.684  1.00  0.00    -0.003 C 
HETATM   15  C19 UNL     1       6.941  -1.855  -0.309  1.00  0.00     0.011 C 
HETATM   16  C24 UNL     1       6.463  -0.052   1.266  1.00  0.00     0.082 C 
HETATM   17  C20 UNL     1       7.961  -0.997  -0.983  1.00  0.00     0.001 C 
HETATM   18  C21 UNL     1       7.797   0.326  -1.239  1.00  0.00     0.001 C 
HETATM   19  C22 UNL     1       6.575   1.107  -0.880  1.00  0.00     0.008 C 
ENDBRANCH   3   5
BRANCH   1  20
HETATM   20  C9  UNL     1      -2.230   1.080   0.139  1.00  0.00     0.033 A 
HETATM   21  C8  UNL     1      -3.070   2.195  -0.003  1.00  0.00     0.018 A 
HETATM   22  C7  UNL     1      -4.441   2.036  -0.209  1.00  0.00     0.014 A 
HETATM   23  C6  UNL     1      -5.016   0.751  -0.269  1.00  0.00    -0.020 A 
HETATM   24  C4  UNL     1      -6.405   0.559  -0.483  1.00  0.00    -0.050 A 
HETATM   25  C26 UNL     1      -4.173  -0.378  -0.109  1.00  0.00    -0.024 A 
HETATM   26  C3  UNL     1      -6.922  -0.747  -0.523  1.00  0.00     0.014 A 
HETATM   27  C5  UNL     1      -7.349   1.720  -0.671  1.00  0.00     0.049 C 
HETATM   28  C2  UNL     1      -6.089  -1.858  -0.342  1.00  0.00    -0.061 A 
HETATM   29  C1  UNL     1      -6.655  -3.246  -0.427  1.00  0.00     0.048 C 
HETATM   30  C27 UNL     1      -4.716  -1.670  -0.151  1.00  0.00     0.019 A 
HETATM   31  C25 UNL     1      -2.794  -0.206   0.096  1.00  0.00     0.029 A 
ENDBRANCH   1  20
TORSDOF 2
