REMARK  2 active torsions:
REMARK  status: ('A' for Active; 'I' for Inactive)
REMARK    1  A    between atoms: C1_2  and  C2_3 
REMARK       I    between atoms: C1_2  and  N1_13 
REMARK    2  A    between atoms: C14_16  and  C15_17 
ROOT
HETATM    1  O1  UNL     1       1.736   2.075  -2.213  1.00  0.00    -0.267 OA
HETATM    2  C1  UNL     1       1.644   1.223  -1.290  1.00  0.00     0.255 C 
HETATM    3  N1  UNL     1       0.360   0.674  -0.996  1.00  0.00    -0.326 N 
HETATM    4  C12 UNL     1      -1.110   0.567  -1.270  1.00  0.00     0.139 A 
HETATM    5  C13 UNL     1      -2.204   1.275  -0.564  1.00  0.00     0.009 C 
HETATM    6  C14 UNL     1      -3.274   0.541  -0.166  1.00  0.00    -0.045 C 
HETATM    7  C21 UNL     1      -3.486  -0.933  -0.607  1.00  0.00     0.078 C 
HETATM    8  C22 UNL     1      -2.318  -1.952  -0.680  1.00  0.00    -0.045 A 
HETATM    9  C23 UNL     1      -2.655  -3.294  -0.933  1.00  0.00     0.008 A 
HETATM   10  C24 UNL     1      -1.663  -4.266  -1.100  1.00  0.00     0.001 A 
HETATM   11  C25 UNL     1      -0.313  -3.916  -1.026  1.00  0.00     0.001 A 
HETATM   12  C26 UNL     1       0.054  -2.593  -0.782  1.00  0.00     0.010 A 
HETATM   13  C27 UNL     1      -0.933  -1.613  -0.627  1.00  0.00    -0.026 A 
HETATM   14  C28 UNL     1      -0.575  -0.225  -0.255  1.00  0.00     0.148 A 
ENDROOT
BRANCH   2  15
HETATM   15  C2  UNL     1       2.857   0.801  -0.544  1.00  0.00     0.033 A 
HETATM   16  C3  UNL     1       2.764  -0.041   0.579  1.00  0.00     0.018 A 
HETATM   17  C4  UNL     1       3.911  -0.438   1.272  1.00  0.00     0.013 A 
HETATM   18  C5  UNL     1       5.174   0.001   0.857  1.00  0.00    -0.026 A 
HETATM   19  C6  UNL     1       6.332  -0.393   1.547  1.00  0.00     0.012 A 
HETATM   20  C10 UNL     1       5.284   0.852  -0.268  1.00  0.00    -0.025 A 
HETATM   21  C7  UNL     1       7.587   0.053   1.123  1.00  0.00     0.001 A 
HETATM   22  C8  UNL     1       7.696   0.893   0.012  1.00  0.00     0.001 A 
HETATM   23  C9  UNL     1       6.550   1.293  -0.683  1.00  0.00     0.012 A 
HETATM   24  C11 UNL     1       4.127   1.245  -0.958  1.00  0.00     0.029 A 
ENDBRANCH   2  15
BRANCH   6  25
HETATM   25  C15 UNL     1      -4.357   1.217   0.595  1.00  0.00    -0.030 A 
HETATM   26  C16 UNL     1      -5.707   0.995   0.267  1.00  0.00     0.012 A 
HETATM   27  C17 UNL     1      -6.725   1.627   0.988  1.00  0.00     0.001 A 
HETATM   28  C18 UNL     1      -6.407   2.484   2.045  1.00  0.00     0.000 A 
HETATM   29  C19 UNL     1      -5.070   2.710   2.382  1.00  0.00     0.001 A 
HETATM   30  C20 UNL     1      -4.049   2.081   1.664  1.00  0.00     0.012 A 
ENDBRANCH   6  25
TORSDOF 2
