REMARK  4 active torsions:
REMARK  status: ('A' for Active; 'I' for Inactive)
REMARK    1  A    between atoms: C1_2  and  C2_3 
REMARK       I    between atoms: C1_2  and  N2_13 
REMARK    2  A    between atoms: C12_15  and  N3_16 
REMARK    3  A    between atoms: N3_16  and  C13_17 
REMARK    4  A    between atoms: C16_21  and  N5_22 
ROOT
HETATM    1  O1  UNL     1       4.015  -1.728  -3.951  1.00  0.00    -0.266 OA
HETATM    2  C1  UNL     1       3.757  -1.347  -2.777  1.00  0.00     0.272 C 
HETATM    3  N2  UNL     1       2.540  -1.776  -2.163  1.00  0.00    -0.343 N 
HETATM    4  C11 UNL     1       1.829  -1.613  -0.880  1.00  0.00     0.153 A 
HETATM    5  C12 UNL     1       0.648  -2.456  -1.245  1.00  0.00     0.135 A 
HETATM    6  C22 UNL     1       1.383  -2.609  -2.542  1.00  0.00     0.153 A 
ENDROOT
BRANCH   5   7
HETATM    7  N3  UNL     1      -0.588  -1.677  -1.356  1.00  0.00    -0.215 N 
HETATM    8  H10 UNL     1      -1.004  -1.482  -2.295  1.00  0.00     0.178 HD
BRANCH   7   9
HETATM    9  C13 UNL     1      -1.294  -1.220  -0.197  1.00  0.00     0.724 A 
HETATM   10  N4  UNL     1      -0.825  -1.490   1.051  1.00  0.00    -0.075 NA
HETATM   11  C14 UNL     1      -1.487  -1.061   2.155  1.00  0.00     0.140 A 
HETATM   12  C15 UNL     1      -2.666  -0.330   2.021  1.00  0.00     0.071 A 
HETATM   13  C16 UNL     1      -3.139  -0.046   0.730  1.00  0.00     0.146 A 
HETATM   14  N6  UNL     1      -2.442  -0.506  -0.344  1.00  0.00    -0.045 NA
BRANCH  13  15
HETATM   15  N5  UNL     1      -4.360   0.694   0.525  1.00  0.00    -0.363 N 
HETATM   16  C17 UNL     1      -4.753   1.781   1.427  1.00  0.00     0.126 C 
HETATM   17  C18 UNL     1      -5.975   1.379   2.262  1.00  0.00     0.046 C 
HETATM   18  C19 UNL     1      -7.244   1.272   1.390  1.00  0.00     0.169 C 
HETATM   19  O2  UNL     1      -7.499  -0.008   0.827  1.00  0.00    -0.389 OA
HETATM   20  C20 UNL     1      -6.377  -0.678   0.265  1.00  0.00     0.187 C 
HETATM   21  C21 UNL     1      -5.342   0.209  -0.451  1.00  0.00     0.150 C 
ENDBRANCH  13  15
ENDBRANCH   7   9
ENDBRANCH   5   7
BRANCH   2  22
HETATM   22  C2  UNL     1       4.701  -0.468  -2.056  1.00  0.00     0.125 A 
HETATM   23  C3  UNL     1       5.893  -0.033  -2.662  1.00  0.00     0.038 A 
HETATM   24  C4  UNL     1       6.765   0.799  -1.957  1.00  0.00     0.016 A 
HETATM   25  C5  UNL     1       6.449   1.195  -0.653  1.00  0.00    -0.007 A 
HETATM   26  C6  UNL     1       7.302   2.031   0.084  1.00  0.00     0.014 A 
HETATM   27  C10 UNL     1       5.244   0.740  -0.075  1.00  0.00     0.068 A 
HETATM   28  C7  UNL     1       6.956   2.408   1.386  1.00  0.00     0.001 A 
HETATM   29  C8  UNL     1       5.761   1.955   1.956  1.00  0.00     0.002 A 
HETATM   30  C9  UNL     1       4.906   1.123   1.228  1.00  0.00     0.032 A 
HETATM   31  N1  UNL     1       4.415  -0.069  -0.786  1.00  0.00    -0.243 NA
ENDBRANCH   2  22
TORSDOF 4
