REMARK  4 active torsions:
REMARK  status: ('A' for Active; 'I' for Inactive)
REMARK    1  A    between atoms: C2_2  and  O1_3 
REMARK    2  A    between atoms: C2_2  and  C3_4 
REMARK    3  A    between atoms: C3_4  and  C5_6 
REMARK       I    between atoms: C5_6  and  N1_8 
REMARK       I    between atoms: N2_17  and  C14_18 
REMARK    4  A    between atoms: C14_18  and  C15_20 
ROOT
HETATM    1  C5  UNL     1      -2.844   1.486  -0.325  1.00  0.00     0.226 C 
HETATM    2  O2  UNL     1      -2.753   2.661   0.126  1.00  0.00    -0.273 OA
HETATM    3  N1  UNL     1      -1.811   0.530  -0.011  1.00  0.00    -0.350 N 
HETATM    4  C6  UNL     1      -1.741  -0.807  -0.557  1.00  0.00     0.136 A 
HETATM    5  C7  UNL     1      -0.449  -1.471   0.006  1.00  0.00    -0.013 A 
HETATM    6  C8  UNL     1      -0.837  -2.646   0.942  1.00  0.00     0.012 C 
HETATM    7  C9  UNL     1      -0.844  -2.079   2.352  1.00  0.00     0.002 C 
HETATM    8  C10 UNL     1       0.195  -0.970   2.362  1.00  0.00     0.014 C 
HETATM    9  C11 UNL     1       0.223  -0.391   0.925  1.00  0.00     0.001 A 
HETATM   10  C12 UNL     1      -0.701   0.861   0.853  1.00  0.00     0.137 A 
HETATM   11  C13 UNL     1       1.664   0.058   0.513  1.00  0.00     0.138 C 
HETATM   12  N2  UNL     1       2.715  -0.981   0.536  1.00  0.00    -0.347 N 
HETATM   13  C14 UNL     1       4.052  -0.574   0.886  1.00  0.00     0.255 C 
HETATM   14  O3  UNL     1       4.682  -1.217   1.770  1.00  0.00    -0.267 OA
HETATM   15  C20 UNL     1       2.455  -2.418   0.370  1.00  0.00     0.126 C 
HETATM   16  C21 UNL     1       1.700  -2.748  -0.920  1.00  0.00     0.021 C 
HETATM   17  C22 UNL     1       0.418  -1.941  -1.206  1.00  0.00     0.013 C 
ENDROOT
BRANCH  13  18
HETATM   18  C15 UNL     1       4.697   0.588   0.237  1.00  0.00     0.047 A 
HETATM   19  C16 UNL     1       4.399   0.928  -1.091  1.00  0.00     0.024 A 
HETATM   20  C17 UNL     1       5.024   2.024  -1.690  1.00  0.00     0.075 A 
HETATM   21  C18 UNL     1       5.951   2.770  -0.958  1.00  0.00     0.245 A 
HETATM   22  O4  UNL     1       6.516   3.765  -1.488  1.00  0.00    -0.268 OA
HETATM   23  N3  UNL     1       6.246   2.421   0.325  1.00  0.00    -0.333 N 
HETATM   24  C19 UNL     1       5.649   1.356   0.928  1.00  0.00     0.108 A 
HETATM   25  H24 UNL     1       6.946   2.980   0.865  1.00  0.00     0.168 HD
ENDBRANCH  13  18
BRANCH   1  26
HETATM   26  C3  UNL     1      -4.034   1.134  -1.198  1.00  0.00     0.102 C 
HETATM   27  C4  UNL     1      -3.900   1.862  -2.543  1.00  0.00     0.022 C 
BRANCH  26  28
HETATM   28  C2  UNL     1      -5.373   1.487  -0.501  1.00  0.00     0.126 C 
HETATM   29  C1  UNL     1      -5.534   0.736   0.831  1.00  0.00     0.040 C 
BRANCH  28  30
HETATM   30  O1  UNL     1      -6.443   1.147  -1.347  1.00  0.00    -0.395 OA
HETATM   31  H5  UNL     1      -7.231   1.663  -1.035  1.00  0.00     0.210 HD
ENDBRANCH  28  30
ENDBRANCH  26  28
ENDBRANCH   1  26
TORSDOF 4
