REMARK  2 active torsions:
REMARK  status: ('A' for Active; 'I' for Inactive)
REMARK       I    between atoms: C1_2  and  N1_3 
REMARK    1  A    between atoms: C1_2  and  C22_24 
REMARK    2  A    between atoms: N1_3  and  C2_4 
ROOT
HETATM    1  C22 UNL     1      -0.995   1.165   0.776  1.00  0.00     0.033 A 
HETATM    2  C23 UNL     1      -1.959   0.146   0.821  1.00  0.00     0.030 A 
HETATM    3  C24 UNL     1      -3.191   0.342   1.468  1.00  0.00    -0.010 A 
HETATM    4  C25 UNL     1      -3.471   1.583   2.091  1.00  0.00     0.026 A 
HETATM    5  C26 UNL     1      -2.484   2.584   2.067  1.00  0.00     0.017 A 
HETATM    6  C27 UNL     1      -1.267   2.382   1.415  1.00  0.00     0.018 A 
HETATM    7  C28 UNL     1      -4.684   1.839   2.914  1.00  0.00     0.194 C 
HETATM    8  O2  UNL     1      -4.500   2.383   4.038  1.00  0.00    -0.287 OA
HETATM    9  C29 UNL     1      -6.093   1.525   2.529  1.00  0.00     0.026 A 
HETATM   10  C30 UNL     1      -6.992   1.223   3.574  1.00  0.00     0.016 A 
HETATM   11  C31 UNL     1      -8.354   1.046   3.328  1.00  0.00     0.001 A 
HETATM   12  C32 UNL     1      -8.852   1.176   2.037  1.00  0.00     0.001 A 
HETATM   13  C33 UNL     1      -7.988   1.467   0.983  1.00  0.00     0.013 A 
HETATM   14  C34 UNL     1      -6.612   1.640   1.207  1.00  0.00    -0.011 A 
HETATM   15  C35 UNL     1      -5.763   1.788   0.009  1.00  0.00    -0.014 A 
HETATM   16  C36 UNL     1      -5.689   3.019  -0.657  1.00  0.00     0.013 A 
HETATM   17  C37 UNL     1      -4.996   3.121  -1.867  1.00  0.00     0.001 A 
HETATM   18  C38 UNL     1      -4.394   1.991  -2.428  1.00  0.00     0.001 A 
HETATM   19  C39 UNL     1      -4.476   0.756  -1.779  1.00  0.00     0.013 A 
HETATM   20  C40 UNL     1      -5.169   0.647  -0.566  1.00  0.00    -0.014 A 
HETATM   21  C41 UNL     1      -5.113  -0.608   0.209  1.00  0.00    -0.014 A 
HETATM   22  C42 UNL     1      -6.024  -1.642  -0.038  1.00  0.00     0.013 A 
HETATM   23  C43 UNL     1      -6.032  -2.775   0.782  1.00  0.00     0.001 A 
HETATM   24  C44 UNL     1      -5.133  -2.877   1.849  1.00  0.00     0.001 A 
HETATM   25  C45 UNL     1      -4.220  -1.848   2.099  1.00  0.00     0.013 A 
HETATM   26  C46 UNL     1      -4.216  -0.704   1.290  1.00  0.00    -0.014 A 
ENDROOT
BRANCH   1  27
HETATM   27  C1  UNL     1       0.290   0.970   0.062  1.00  0.00     0.256 C 
HETATM   28  O1  UNL     1       1.264   1.729   0.321  1.00  0.00    -0.267 OA
HETATM   29  N1  UNL     1       0.417  -0.031  -0.964  1.00  0.00    -0.323 N 
HETATM   30  H1  UNL     1      -0.446  -0.319  -1.476  1.00  0.00     0.169 HD
BRANCH  29  31
HETATM   31  C2  UNL     1       1.680  -0.523  -1.449  1.00  0.00     0.035 A 
HETATM   32  C3  UNL     1       2.795  -0.636  -0.604  1.00  0.00     0.042 A 
HETATM   33  C4  UNL     1       4.035  -1.131  -1.074  1.00  0.00    -0.017 A 
HETATM   34  C5  UNL     1       4.132  -1.493  -2.439  1.00  0.00    -0.047 A 
HETATM   35  C21 UNL     1       5.163  -1.261  -0.085  1.00  0.00    -0.014 C 
HETATM   36  C6  UNL     1       3.004  -1.401  -3.272  1.00  0.00     0.010 A 
HETATM   37  C8  UNL     1       5.449  -1.817  -3.061  1.00  0.00     0.044 C 
HETATM   38  C7  UNL     1       1.787  -0.940  -2.777  1.00  0.00     0.030 A 
HETATM   39  C9  UNL     1       6.276  -0.526  -3.175  1.00  0.00     0.044 C 
HETATM   40  C10 UNL     1       7.528  -0.671  -2.375  1.00  0.00    -0.047 A 
HETATM   41  C11 UNL     1       8.729  -0.929  -3.064  1.00  0.00     0.008 A 
HETATM   42  C15 UNL     1       7.506  -0.685  -0.956  1.00  0.00    -0.019 A 
HETATM   43  C12 UNL     1       9.905  -1.200  -2.369  1.00  0.00     0.001 A 
HETATM   44  C13 UNL     1       9.895  -1.240  -0.980  1.00  0.00     0.001 A 
HETATM   45  C14 UNL     1       8.713  -0.994  -0.282  1.00  0.00     0.013 A 
HETATM   46  C16 UNL     1       6.289  -0.383  -0.119  1.00  0.00    -0.014 C 
HETATM   47  C17 UNL     1       6.553   0.370   1.046  1.00  0.00     0.013 C 
HETATM   48  C18 UNL     1       6.010  -0.009   2.274  1.00  0.00     0.001 C 
HETATM   49  C19 UNL     1       5.188  -1.130   2.348  1.00  0.00     0.001 C 
HETATM   50  C20 UNL     1       4.772  -1.761   1.175  1.00  0.00     0.013 C 
ENDBRANCH  29  31
ENDBRANCH   1  27
TORSDOF 2
