REMARK  3 active torsions:
REMARK  status: ('A' for Active; 'I' for Inactive)
REMARK    1  A    between atoms: C10_10  and  C11_11 
REMARK    2  A    between atoms: C12_12  and  C13_13 
REMARK    3  A    between atoms: C21_21  and  C22_22 
ROOT
HETATM    1  C11 UNL     1      -0.753   1.079   0.336  1.00  0.00    -0.038 A 
HETATM    2  C12 UNL     1      -1.581  -0.076   0.260  1.00  0.00    -0.018 A 
HETATM    3  C20 UNL     1      -2.977   0.061   0.292  1.00  0.00     0.025 A 
HETATM    4  C21 UNL     1      -3.574   1.320   0.449  1.00  0.00    -0.025 A 
HETATM    5  C28 UNL     1      -2.759   2.446   0.610  1.00  0.00     0.013 A 
HETATM    6  C29 UNL     1      -1.370   2.328   0.552  1.00  0.00     0.009 A 
ENDROOT
BRANCH   1   7
HETATM    7  C10 UNL     1       0.762   1.001   0.101  1.00  0.00     0.053 C 
HETATM    8  C9  UNL     1       1.575   1.704   1.219  1.00  0.00     0.019 C 
HETATM    9  C8  UNL     1       3.094   1.744   0.969  1.00  0.00     0.040 C 
HETATM   10  C6  UNL     1       3.630   0.454   0.396  1.00  0.00    -0.046 A 
HETATM   11  C5  UNL     1       3.364   0.101  -0.949  1.00  0.00    -0.019 A 
HETATM   12  C7  UNL     1       4.391  -0.408   1.202  1.00  0.00     0.014 A 
HETATM   13  C4  UNL     1       3.904  -1.089  -1.467  1.00  0.00     0.013 A 
HETATM   14  C35 UNL     1       2.468   0.935  -1.797  1.00  0.00    -0.018 A 
HETATM   15  C3  UNL     1       4.689  -1.922  -0.666  1.00  0.00     0.007 A 
HETATM   16  C2  UNL     1       4.938  -1.587   0.670  1.00  0.00    -0.061 A 
HETATM   17  C1  UNL     1       5.734  -2.514   1.540  1.00  0.00     0.048 C 
HETATM   18  C30 UNL     1       1.216   1.403  -1.308  1.00  0.00    -0.038 A 
HETATM   19  C34 UNL     1       2.876   1.267  -3.100  1.00  0.00     0.013 A 
HETATM   20  C31 UNL     1       0.417   2.200  -2.158  1.00  0.00     0.009 A 
HETATM   21  C32 UNL     1       0.839   2.514  -3.450  1.00  0.00     0.001 A 
HETATM   22  C33 UNL     1       2.065   2.049  -3.921  1.00  0.00     0.001 A 
ENDBRANCH   1   7
BRANCH   2  23
HETATM   23  C13 UNL     1      -1.019  -1.443   0.200  1.00  0.00    -0.025 A 
HETATM   24  C14 UNL     1      -0.301  -1.950   1.293  1.00  0.00     0.019 A 
HETATM   25  C15 UNL     1       0.320  -3.206   1.214  1.00  0.00    -0.061 A 
HETATM   26  C16 UNL     1       1.105  -3.735   2.378  1.00  0.00     0.048 C 
HETATM   27  C17 UNL     1       0.161  -3.984   0.056  1.00  0.00     0.007 A 
HETATM   28  C18 UNL     1      -0.587  -3.496  -1.020  1.00  0.00     0.001 A 
HETATM   29  C19 UNL     1      -1.174  -2.231  -0.951  1.00  0.00     0.012 A 
ENDBRANCH   2  23
BRANCH   4  30
HETATM   30  C22 UNL     1      -5.048   1.465   0.408  1.00  0.00    -0.026 A 
HETATM   31  C23 UNL     1      -5.718   2.285   1.334  1.00  0.00     0.012 A 
HETATM   32  C24 UNL     1      -7.105   2.456   1.258  1.00  0.00     0.001 A 
HETATM   33  C25 UNL     1      -7.835   1.815   0.255  1.00  0.00     0.000 A 
HETATM   34  C26 UNL     1      -7.179   0.996  -0.666  1.00  0.00     0.001 A 
HETATM   35  C27 UNL     1      -5.795   0.817  -0.590  1.00  0.00     0.012 A 
ENDBRANCH   4  30
TORSDOF 3
