REMARK  5 active torsions:
REMARK  status: ('A' for Active; 'I' for Inactive)
REMARK    1  A    between atoms: N1_4  and  C4_5 
REMARK    2  A    between atoms: C6_8  and  C7_9 
REMARK       I    between atoms: C7_9  and  N3_11 
REMARK    3  A    between atoms: C11_15  and  O2_16 
REMARK    4  A    between atoms: C11_15  and  C12_17 
REMARK    5  A    between atoms: C12_17  and  O3_18 
ROOT
HETATM    1  C4  UNL     1      -1.423  -0.273  -0.978  1.00  0.00     0.048 A 
HETATM    2  C5  UNL     1      -0.894  -0.776  -2.175  1.00  0.00     0.146 A 
HETATM    3  N2  UNL     1       0.453  -0.836  -2.356  1.00  0.00    -0.253 NA
HETATM    4  C6  UNL     1       1.332  -0.435  -1.397  1.00  0.00     0.124 A 
HETATM    5  C14 UNL     1       0.840   0.085  -0.189  1.00  0.00     0.039 A 
HETATM    6  C15 UNL     1      -0.538   0.160   0.018  1.00  0.00     0.033 A 
ENDROOT
BRANCH   4   7
HETATM    7  C7  UNL     1       2.782  -0.489  -1.681  1.00  0.00     0.272 C 
HETATM    8  O1  UNL     1       3.168  -0.593  -2.876  1.00  0.00    -0.266 OA
HETATM    9  N3  UNL     1       3.759  -0.385  -0.631  1.00  0.00    -0.344 N 
HETATM   10  C8  UNL     1       3.733  -1.339   0.486  1.00  0.00     0.126 C 
HETATM   11  C13 UNL     1       4.931   0.478  -0.853  1.00  0.00     0.166 C 
HETATM   12  C9  UNL     1       4.090  -0.665   1.823  1.00  0.00     0.023 C 
HETATM   13  C10 UNL     1       4.774   0.704   1.659  1.00  0.00     0.043 C 
HETATM   14  C11 UNL     1       5.738   0.759   0.445  1.00  0.00     0.095 C 
BRANCH  14  15
HETATM   15  O2  UNL     1       6.274   2.059   0.330  1.00  0.00    -0.386 OA
HETATM   16  H14 UNL     1       6.693   2.305   1.196  1.00  0.00     0.210 HD
ENDBRANCH  14  15
BRANCH  14  17
HETATM   17  C12 UNL     1       6.910  -0.250   0.582  1.00  0.00     0.203 C 
BRANCH  17  18
HETATM   18  O3  UNL     1       7.587  -0.084   1.801  1.00  0.00    -0.398 OA
HETATM   19  H17 UNL     1       8.315   0.572   1.641  1.00  0.00     0.209 HD
ENDBRANCH  17  18
ENDBRANCH  14  17
ENDBRANCH   4   7
BRANCH   1  20
HETATM   20  N1  UNL     1      -2.847  -0.185  -0.790  1.00  0.00    -0.378 N 
HETATM   21  C3  UNL     1      -3.433   1.129  -0.463  1.00  0.00     0.158 C 
HETATM   22  C2  UNL     1      -4.983   1.124  -0.343  1.00  0.00     0.236 C 
HETATM   23  C1  UNL     1      -5.460   2.568  -0.140  1.00  0.00     0.044 C 
HETATM   24  N4  UNL     1      -5.524   0.288   0.770  1.00  0.00     0.090 N 
HETATM   25  C18 UNL     1      -4.616  -0.711   1.383  1.00  0.00     0.274 C 
HETATM   26  C19 UNL     1      -6.836  -0.299   0.437  1.00  0.00     0.310 C 
HETATM   27  C17 UNL     1      -4.199  -1.857   0.440  1.00  0.00     0.050 C 
HETATM   28  C16 UNL     1      -3.667  -1.398  -0.921  1.00  0.00     0.125 C 
ENDBRANCH   1  20
TORSDOF 5
