REMARK  3 active torsions:
REMARK  status: ('A' for Active; 'I' for Inactive)
REMARK    1  A    between atoms: S1_2  and  C2_5 
REMARK    2  A    between atoms: C8_11  and  C9_12 
REMARK    3  A    between atoms: C12_15  and  C13_16 
ROOT
HETATM    1  C2  UNL     1      -2.949   3.089  -0.222  1.00  0.00     0.059 A 
HETATM    2  C3  UNL     1      -3.492   2.366   0.844  1.00  0.00     0.024 A 
HETATM    3  C4  UNL     1      -3.128   1.035   1.047  1.00  0.00     0.014 A 
HETATM    4  C5  UNL     1      -2.217   0.399   0.185  1.00  0.00    -0.017 A 
HETATM    5  C6  UNL     1      -1.667   1.126  -0.898  1.00  0.00    -0.035 A 
HETATM    6  C7  UNL     1      -2.049   2.466  -1.093  1.00  0.00     0.032 A 
HETATM    7  C8  UNL     1      -0.672   0.492  -1.856  1.00  0.00     0.070 C 
HETATM    8  C21 UNL     1      -1.400  -0.556  -2.730  1.00  0.00     0.134 C 
HETATM    9  N1  UNL     1      -2.117  -1.592  -1.975  1.00  0.00    -0.388 N 
HETATM   10  C22 UNL     1      -1.824  -1.966  -0.620  1.00  0.00     0.039 A 
HETATM   11  C23 UNL     1      -1.540  -3.311  -0.336  1.00  0.00     0.030 A 
HETATM   12  C24 UNL     1      -1.237  -3.712   0.966  1.00  0.00     0.002 A 
HETATM   13  C25 UNL     1      -1.231  -2.777   2.000  1.00  0.00     0.001 A 
HETATM   14  C26 UNL     1      -1.542  -1.441   1.739  1.00  0.00     0.014 A 
HETATM   15  C27 UNL     1      -1.853  -1.021   0.431  1.00  0.00     0.001 A 
HETATM   16  H18 UNL     1      -2.653  -2.279  -2.552  1.00  0.00     0.159 HD
ENDROOT
BRANCH   7  17
HETATM   17  C9  UNL     1       0.594   0.024  -1.133  1.00  0.00    -0.048 A 
HETATM   18  C10 UNL     1       1.165  -1.251  -1.325  1.00  0.00     0.009 A 
HETATM   19  C11 UNL     1       2.318  -1.629  -0.632  1.00  0.00     0.013 A 
HETATM   20  C12 UNL     1       2.947  -0.738   0.252  1.00  0.00    -0.026 A 
HETATM   21  C19 UNL     1       2.404   0.546   0.418  1.00  0.00     0.013 A 
HETATM   22  C20 UNL     1       1.251   0.924  -0.273  1.00  0.00     0.009 A 
BRANCH  20  23
HETATM   23  C13 UNL     1       4.165  -1.145   0.997  1.00  0.00    -0.023 A 
HETATM   24  C14 UNL     1       4.333  -0.783   2.347  1.00  0.00     0.012 A 
HETATM   25  C15 UNL     1       5.480  -1.169   3.047  1.00  0.00     0.004 A 
HETATM   26  C16 UNL     1       6.471  -1.918   2.410  1.00  0.00     0.042 A 
HETATM   27  C17 UNL     1       6.317  -2.284   1.070  1.00  0.00     0.117 A 
HETATM   28  F1  UNL     1       7.283  -3.008   0.451  1.00  0.00    -0.206 F 
HETATM   29  C18 UNL     1       5.171  -1.901   0.366  1.00  0.00     0.054 A 
ENDBRANCH  20  23
ENDBRANCH   7  17
BRANCH   1  30
HETATM   30  S1  UNL     1      -3.423   4.762  -0.492  1.00  0.00     0.171 S 
HETATM   31  C1  UNL     1      -4.777   4.813  -1.644  1.00  0.00     0.167 C 
HETATM   32  O1  UNL     1      -2.260   5.536  -1.046  1.00  0.00    -0.223 OA
HETATM   33  O2  UNL     1      -3.846   5.391   0.806  1.00  0.00    -0.223 OA
ENDBRANCH   1  30
TORSDOF 3
