REMARK  2 active torsions:
REMARK  status: ('A' for Active; 'I' for Inactive)
REMARK    1  A    between atoms: C8_8  and  N1_9 
REMARK       I    between atoms: N1_9  and  C9_10 
REMARK    2  A    between atoms: C9_10  and  C10_12 
ROOT
HETATM    1  C1  UNL     1      -2.911   1.168  -5.039  1.00  0.00     0.048 C 
HETATM    2  C2  UNL     1      -2.941   0.684  -3.620  1.00  0.00    -0.061 A 
HETATM    3  C3  UNL     1      -3.631  -0.486  -3.292  1.00  0.00     0.007 A 
HETATM    4  C4  UNL     1      -3.629  -0.958  -1.981  1.00  0.00     0.013 A 
HETATM    5  C5  UNL     1      -2.930  -0.277  -0.972  1.00  0.00    -0.017 A 
HETATM    6  C6  UNL     1      -2.207   0.904  -1.294  1.00  0.00    -0.024 A 
HETATM    7  C7  UNL     1      -2.216   1.357  -2.629  1.00  0.00     0.017 A 
HETATM    8  C8  UNL     1      -1.324   1.651  -0.296  1.00  0.00     0.123 C 
HETATM    9  C23 UNL     1      -2.004   2.090   1.025  1.00  0.00     0.069 C 
HETATM   10  C24 UNL     1      -3.498   2.285   0.910  1.00  0.00    -0.045 A 
HETATM   11  C25 UNL     1      -4.021   3.549   0.596  1.00  0.00     0.011 A 
HETATM   12  C26 UNL     1      -5.404   3.742   0.525  1.00  0.00     0.043 A 
HETATM   13  C27 UNL     1      -6.275   2.675   0.763  1.00  0.00     0.117 A 
HETATM   14  F1  UNL     1      -7.615   2.868   0.694  1.00  0.00    -0.206 F 
HETATM   15  C28 UNL     1      -5.766   1.407   1.058  1.00  0.00     0.055 A 
HETATM   16  C29 UNL     1      -4.380   1.200   1.118  1.00  0.00    -0.016 A 
HETATM   17  C30 UNL     1      -3.845  -0.156   1.372  1.00  0.00    -0.014 A 
HETATM   18  C31 UNL     1      -4.064  -0.764   2.618  1.00  0.00     0.013 A 
HETATM   19  C32 UNL     1      -3.489  -2.003   2.908  1.00  0.00     0.001 A 
HETATM   20  C33 UNL     1      -2.697  -2.648   1.957  1.00  0.00     0.001 A 
HETATM   21  C34 UNL     1      -2.484  -2.060   0.707  1.00  0.00     0.013 A 
HETATM   22  C35 UNL     1      -3.044  -0.808   0.406  1.00  0.00    -0.014 A 
ENDROOT
BRANCH   8  23
HETATM   23  N1  UNL     1      -0.139   0.840   0.000  1.00  0.00    -0.348 N 
HETATM   24  C9  UNL     1       1.101   0.990  -0.710  1.00  0.00     0.252 C 
HETATM   25  O1  UNL     1       1.142   1.701  -1.751  1.00  0.00    -0.268 OA
HETATM   26  H8  UNL     1      -0.253   0.022   0.639  1.00  0.00     0.163 HD
BRANCH  24  27
HETATM   27  C10 UNL     1       2.336   0.316  -0.238  1.00  0.00     0.033 A 
HETATM   28  C11 UNL     1       2.472  -0.083   1.098  1.00  0.00     0.018 A 
HETATM   29  C12 UNL     1       3.640  -0.703   1.544  1.00  0.00     0.014 A 
HETATM   30  C13 UNL     1       4.723  -0.939   0.666  1.00  0.00    -0.008 A 
HETATM   31  C14 UNL     1       4.591  -0.524  -0.686  1.00  0.00     0.044 A 
HETATM   32  C22 UNL     1       5.933  -1.566   1.083  1.00  0.00     0.002 A 
HETATM   33  C15 UNL     1       3.403   0.098  -1.121  1.00  0.00     0.035 A 
HETATM   34  C16 UNL     1       5.655  -0.736  -1.582  1.00  0.00     0.257 A 
HETATM   35  O2  UNL     1       5.562  -0.374  -2.787  1.00  0.00    -0.267 OA
HETATM   36  N2  UNL     1       6.800  -1.331  -1.159  1.00  0.00    -0.322 N 
HETATM   37  C17 UNL     1       6.969  -1.747   0.127  1.00  0.00     0.046 A 
HETATM   38  H12 UNL     1       7.571  -1.472  -1.852  1.00  0.00     0.169 HD
HETATM   39  C18 UNL     1       8.178  -2.357   0.502  1.00  0.00     0.030 A 
HETATM   40  C19 UNL     1       8.375  -2.792   1.810  1.00  0.00     0.002 A 
HETATM   41  C20 UNL     1       7.369  -2.625   2.758  1.00  0.00     0.001 A 
HETATM   42  C21 UNL     1       6.160  -2.021   2.406  1.00  0.00     0.014 A 
ENDBRANCH  24  27
ENDBRANCH   8  23
TORSDOF 2
