REMARK  3 active torsions:
REMARK  status: ('A' for Active; 'I' for Inactive)
REMARK    1  A    between atoms: C3_4  and  C4_5 
REMARK       I    between atoms: C4_5  and  N1_7 
REMARK    2  A    between atoms: N1_7  and  C5_8 
REMARK    3  A    between atoms: C7_10  and  C8_11 
ROOT
HETATM    1  C4  UNL     1      -0.474  -0.734   0.436  1.00  0.00     0.246 C 
HETATM    2  O2  UNL     1       0.063  -0.044   1.345  1.00  0.00    -0.271 OA
HETATM    3  N1  UNL     1       0.332  -1.536  -0.443  1.00  0.00    -0.310 N 
HETATM    4  H4  UNL     1      -0.140  -2.282  -1.002  1.00  0.00     0.170 HD
ENDROOT
BRANCH   1   5
HETATM    5  C3  UNL     1      -1.980  -0.771   0.327  1.00  0.00     0.183 C 
HETATM    6  C2  UNL     1      -2.569  -1.490   1.545  1.00  0.00     0.138 C 
HETATM    7  C1  UNL     1      -3.901  -2.071   1.207  1.00  0.00     0.224 C 
HETATM    8  O1  UNL     1      -4.232  -3.175   1.716  1.00  0.00    -0.273 OA
HETATM    9  N5  UNL     1      -4.796  -1.426   0.293  1.00  0.00    -0.325 N 
HETATM   10  C19 UNL     1      -4.982  -0.002   0.200  1.00  0.00     0.061 A 
HETATM   11  H17 UNL     1      -5.555  -2.031  -0.096  1.00  0.00     0.169 HD
HETATM   12  C14 UNL     1      -3.913   0.944   0.195  1.00  0.00     0.055 A 
HETATM   13  C18 UNL     1      -6.304   0.464   0.077  1.00  0.00     0.032 A 
HETATM   14  N4  UNL     1      -2.515   0.589   0.242  1.00  0.00    -0.374 N 
HETATM   15  C15 UNL     1      -4.226   2.315   0.107  1.00  0.00     0.031 A 
HETATM   16  H12 UNL     1      -1.827   1.376   0.197  1.00  0.00     0.160 HD
HETATM   17  C16 UNL     1      -5.546   2.751   0.007  1.00  0.00     0.002 A 
HETATM   18  C17 UNL     1      -6.584   1.826  -0.014  1.00  0.00     0.002 A 
ENDBRANCH   1   5
BRANCH   3  19
HETATM   19  C5  UNL     1       1.756  -1.414  -0.574  1.00  0.00     0.126 A 
HETATM   20  C6  UNL     1       2.543  -0.346  -0.189  1.00  0.00     0.084 A 
HETATM   21  C7  UNL     1       3.821  -0.711  -0.593  1.00  0.00     0.090 A 
HETATM   22  N2  UNL     1       3.777  -1.922  -1.190  1.00  0.00    -0.173 NA
HETATM   23  N3  UNL     1       2.522  -2.338  -1.178  1.00  0.00    -0.262 N 
HETATM   24  H11 UNL     1       2.199  -3.243  -1.584  1.00  0.00     0.191 HD
BRANCH  21  25
HETATM   25  C8  UNL     1       5.067   0.079  -0.433  1.00  0.00    -0.006 A 
HETATM   26  C9  UNL     1       5.065   1.324   0.226  1.00  0.00     0.014 A 
HETATM   27  C10 UNL     1       6.251   2.053   0.367  1.00  0.00     0.001 A 
HETATM   28  C11 UNL     1       7.448   1.550  -0.145  1.00  0.00     0.000 A 
HETATM   29  C12 UNL     1       7.464   0.317  -0.799  1.00  0.00     0.001 A 
HETATM   30  C13 UNL     1       6.282  -0.416  -0.943  1.00  0.00     0.014 A 
ENDBRANCH  21  25
ENDBRANCH   3  19
TORSDOF 3
