REMARK  3 active torsions:
REMARK  status: ('A' for Active; 'I' for Inactive)
REMARK    1  A    between atoms: C4_4  and  C5_5 
REMARK    2  A    between atoms: C5_5  and  S1_6 
REMARK    3  A    between atoms: S1_6  and  C6_7 
ROOT
HETATM    1  C6  UNL     1       1.185   0.154   0.112  1.00  0.00     0.061 C 
HETATM    2  C7  UNL     1       0.418   0.561  -1.149  1.00  0.00     0.090 C 
HETATM    3  S2  UNL     1      -0.712   1.931  -0.752  1.00  0.00    -0.151 SA
HETATM    4  C8  UNL     1      -2.238   0.932  -0.397  1.00  0.00     0.059 C 
HETATM    5  C9  UNL     1      -3.011   0.826  -1.716  1.00  0.00     0.054 C 
HETATM    6  C10 UNL     1      -4.410   1.328  -1.386  1.00  0.00     0.169 C 
HETATM    7  O1  UNL     1      -4.501   1.563  -0.002  1.00  0.00    -0.389 OA
HETATM    8  C11 UNL     1      -3.188   1.785   0.446  1.00  0.00     0.193 C 
HETATM    9  C12 UNL     1      -2.059  -0.458   0.300  1.00  0.00    -0.031 A 
HETATM   10  C13 UNL     1      -3.145  -1.372   0.250  1.00  0.00     0.009 A 
HETATM   11  C14 UNL     1      -3.082  -2.629   0.846  1.00  0.00     0.001 A 
HETATM   12  C15 UNL     1      -1.947  -3.013   1.543  1.00  0.00     0.001 A 
HETATM   13  C16 UNL     1      -0.882  -2.129   1.672  1.00  0.00     0.007 A 
HETATM   14  C17 UNL     1      -0.927  -0.845   1.093  1.00  0.00    -0.049 A 
HETATM   15  C18 UNL     1       0.264   0.048   1.344  1.00  0.00     0.055 C 
ENDROOT
BRANCH   1  16
HETATM   16  S1  UNL     1       2.052  -1.435  -0.199  1.00  0.00    -0.157 SA
BRANCH  16  17
HETATM   17  C5  UNL     1       3.500  -1.116   0.868  1.00  0.00     0.139 C 
BRANCH  17  18
HETATM   18  C4  UNL     1       4.473  -0.228   0.162  1.00  0.00     0.061 A 
HETATM   19  C3  UNL     1       4.802   1.063   0.523  1.00  0.00     0.035 A 
HETATM   20  C2  UNL     1       5.718   1.487  -0.415  1.00  0.00     0.027 A 
HETATM   21  C1  UNL     1       5.890   0.431  -1.287  1.00  0.00     0.142 A 
HETATM   22  O2  UNL     1       5.134  -0.577  -0.917  1.00  0.00    -0.326 OA
ENDBRANCH  17  18
ENDBRANCH  16  17
ENDBRANCH   1  16
TORSDOF 3
