REMARK  1 active torsions:
REMARK  status: ('A' for Active; 'I' for Inactive)
REMARK    1  A    between atoms: C7_7  and  C8_8 
ROOT
HETATM    1  C1  UNL     1       0.650  -2.152  -2.956  1.00  0.00     0.001 A 
HETATM    2  C2  UNL     1      -0.479  -2.800  -2.472  1.00  0.00     0.001 A 
HETATM    3  C3  UNL     1      -1.091  -2.353  -1.304  1.00  0.00     0.013 A 
HETATM    4  C4  UNL     1      -0.588  -1.242  -0.598  1.00  0.00    -0.018 A 
HETATM    5  C5  UNL     1       0.564  -0.560  -1.099  1.00  0.00    -0.038 A 
HETATM    6  C6  UNL     1       1.169  -1.052  -2.277  1.00  0.00     0.009 A 
HETATM    7  C7  UNL     1       1.273   0.614  -0.417  1.00  0.00     0.057 C 
HETATM    8  C14 UNL     1       0.386   1.698   0.234  1.00  0.00     0.053 C 
HETATM    9  C15 UNL     1      -0.827   2.016  -0.609  1.00  0.00    -0.046 A 
HETATM   10  C16 UNL     1      -0.737   2.969  -1.636  1.00  0.00     0.008 A 
HETATM   11  C17 UNL     1      -1.854   3.268  -2.421  1.00  0.00     0.001 A 
HETATM   12  C18 UNL     1      -3.068   2.615  -2.190  1.00  0.00     0.001 A 
HETATM   13  C19 UNL     1      -3.165   1.654  -1.181  1.00  0.00     0.013 A 
HETATM   14  C20 UNL     1      -2.045   1.336  -0.398  1.00  0.00    -0.019 A 
HETATM   15  C21 UNL     1      -2.148   0.307   0.655  1.00  0.00    -0.014 A 
HETATM   16  C22 UNL     1      -2.991   0.536   1.754  1.00  0.00     0.013 A 
HETATM   17  C23 UNL     1      -3.034  -0.372   2.813  1.00  0.00     0.001 A 
HETATM   18  C24 UNL     1      -2.240  -1.519   2.783  1.00  0.00     0.001 A 
HETATM   19  C25 UNL     1      -1.408  -1.766   1.690  1.00  0.00     0.013 A 
HETATM   20  C26 UNL     1      -1.337  -0.853   0.623  1.00  0.00    -0.014 A 
ENDROOT
BRANCH   7  21
HETATM   21  C8  UNL     1       2.349   0.106   0.524  1.00  0.00    -0.047 A 
HETATM   22  C9  UNL     1       3.753   0.144   0.075  1.00  0.00     0.010 A 
HETATM   23  C10 UNL     1       4.846  -0.345   0.871  1.00  0.00     0.032 A 
HETATM   24  C11 UNL     1       4.390  -0.837   2.054  1.00  0.00     0.059 A 
HETATM   25  C12 UNL     1       3.085  -0.885   2.482  1.00  0.00     0.060 A 
HETATM   26  N1  UNL     1       4.100  -1.384   3.314  1.00  0.00    -0.353 N 
HETATM   27  C13 UNL     1       1.986  -0.451   1.809  1.00  0.00     0.039 A 
HETATM   28  H9  UNL     1       4.408  -1.829   4.206  1.00  0.00     0.166 HD
ENDBRANCH   7  21
TORSDOF 1
