REMARK  3 active torsions:
REMARK  status: ('A' for Active; 'I' for Inactive)
REMARK    1  A    between atoms: C8_10  and  N2_11 
REMARK       I    between atoms: N2_11  and  C9_12 
REMARK    2  A    between atoms: C9_12  and  C10_14 
REMARK    3  A    between atoms: C14_18  and  C15_19 
ROOT
HETATM    1  N2  UNL     1       1.000  -0.616  -0.772  1.00  0.00    -0.323 N 
HETATM    2  C9  UNL     1       1.822  -1.241   0.229  1.00  0.00     0.256 C 
HETATM    3  O2  UNL     1       1.324  -2.115   0.990  1.00  0.00    -0.267 OA
HETATM    4  H10 UNL     1       1.462  -0.286  -1.650  1.00  0.00     0.169 HD
ENDROOT
BRANCH   1   5
HETATM    5  C8  UNL     1      -0.435  -0.561  -0.705  1.00  0.00     0.036 A 
HETATM    6  C7  UNL     1      -1.178  -0.529  -1.892  1.00  0.00     0.030 A 
HETATM    7  C6  UNL     1      -2.572  -0.465  -1.855  1.00  0.00     0.010 A 
HETATM    8  C5  UNL     1      -3.251  -0.412  -0.628  1.00  0.00    -0.042 A 
HETATM    9  C4  UNL     1      -4.762  -0.431  -0.608  1.00  0.00     0.041 C 
HETATM   10  C18 UNL     1      -2.509  -0.387   0.577  1.00  0.00     0.040 A 
HETATM   11  C3  UNL     1      -5.367   0.925  -0.214  1.00  0.00     0.024 C 
HETATM   12  C2  UNL     1      -4.730   1.569   1.029  1.00  0.00     0.123 C 
HETATM   13  N1  UNL     1      -4.359   0.571   2.031  1.00  0.00    -0.357 N 
HETATM   14  C1  UNL     1      -3.183  -0.240   1.889  1.00  0.00     0.252 C 
HETATM   15  H1  UNL     1      -4.860   0.574   2.948  1.00  0.00     0.162 HD
HETATM   16  O1  UNL     1      -2.709  -0.819   2.903  1.00  0.00    -0.268 OA
HETATM   17  C17 UNL     1      -1.107  -0.474   0.527  1.00  0.00     0.047 A 
ENDBRANCH   1   5
BRANCH   2  18
HETATM   18  C10 UNL     1       3.263  -0.908   0.345  1.00  0.00     0.033 A 
HETATM   19  C11 UNL     1       4.139  -1.784   1.009  1.00  0.00     0.017 A 
HETATM   20  C12 UNL     1       5.493  -1.469   1.139  1.00  0.00     0.002 A 
HETATM   21  C13 UNL     1       5.991  -0.278   0.607  1.00  0.00     0.016 A 
HETATM   22  C14 UNL     1       5.140   0.606  -0.075  1.00  0.00     0.048 A 
HETATM   23  C16 UNL     1       3.772   0.296  -0.179  1.00  0.00     0.033 A 
BRANCH  22  24
HETATM   24  C15 UNL     1       5.664   1.921  -0.598  1.00  0.00     0.417 C 
HETATM   25  F1  UNL     1       7.002   1.817  -0.934  1.00  0.00    -0.166 F 
HETATM   26  F2  UNL     1       5.518   2.889   0.378  1.00  0.00    -0.166 F 
HETATM   27  F3  UNL     1       4.964   2.309  -1.727  1.00  0.00    -0.166 F 
ENDBRANCH  22  24
ENDBRANCH   2  18
TORSDOF 3
