REMARK  3 active torsions:
REMARK  status: ('A' for Active; 'I' for Inactive)
REMARK    1  A    between atoms: C5_5  and  C6_6 
REMARK    2  A    between atoms: C12_12  and  C13_13 
REMARK       I    between atoms: C13_13  and  N1_15 
REMARK    3  A    between atoms: C17_19  and  O2_21 
ROOT
HETATM    1  C6  UNL     1       3.979  -0.609  -0.467  1.00  0.00    -0.025 A 
HETATM    2  C7  UNL     1       3.932  -1.924  -0.963  1.00  0.00     0.013 A 
HETATM    3  C8  UNL     1       2.716  -2.504  -1.331  1.00  0.00     0.013 A 
HETATM    4  C9  UNL     1       1.523  -1.779  -1.210  1.00  0.00    -0.026 A 
HETATM    5  C10 UNL     1       0.298  -2.351  -1.579  1.00  0.00     0.013 A 
HETATM    6  C11 UNL     1      -0.886  -1.621  -1.456  1.00  0.00     0.018 A 
HETATM    7  C12 UNL     1      -0.868  -0.308  -0.953  1.00  0.00     0.033 A 
HETATM    8  C21 UNL     1       0.361   0.272  -0.595  1.00  0.00     0.029 A 
HETATM    9  C22 UNL     1       1.555  -0.455  -0.714  1.00  0.00    -0.024 A 
HETATM   10  C23 UNL     1       2.782   0.120  -0.346  1.00  0.00     0.024 A 
ENDROOT
BRANCH   7  11
HETATM   11  C13 UNL     1      -2.124   0.470  -0.834  1.00  0.00     0.253 C 
HETATM   12  O1  UNL     1      -2.077   1.729  -0.913  1.00  0.00    -0.267 OA
HETATM   13  N1  UNL     1      -3.398  -0.180  -0.655  1.00  0.00    -0.348 N 
HETATM   14  C14 UNL     1      -3.557  -1.237   0.352  1.00  0.00     0.126 C 
HETATM   15  C20 UNL     1      -4.580   0.352  -1.343  1.00  0.00     0.129 C 
HETATM   16  C15 UNL     1      -4.444  -0.775   1.517  1.00  0.00     0.023 C 
HETATM   17  C16 UNL     1      -5.928  -0.667   1.117  1.00  0.00     0.039 C 
HETATM   18  C17 UNL     1      -6.359   0.714   0.531  1.00  0.00     0.056 C 
HETATM   19  C18 UNL     1      -6.614   1.700   1.687  1.00  0.00     0.045 C 
HETATM   20  C19 UNL     1      -5.320   1.353  -0.440  1.00  0.00     0.057 C 
BRANCH  18  21
HETATM   21  O2  UNL     1      -7.588   0.556  -0.140  1.00  0.00    -0.390 OA
HETATM   22  H19 UNL     1      -7.440  -0.028  -0.928  1.00  0.00     0.210 HD
ENDBRANCH  18  21
ENDBRANCH   7  11
BRANCH   1  23
HETATM   23  C5  UNL     1       5.275   0.002  -0.075  1.00  0.00    -0.023 A 
HETATM   24  C4  UNL     1       5.373   0.786   1.088  1.00  0.00     0.013 A 
HETATM   25  C3  UNL     1       6.593   1.359   1.457  1.00  0.00     0.011 A 
HETATM   26  C2  UNL     1       7.736   1.164   0.667  1.00  0.00    -0.023 A 
HETATM   27  C1  UNL     1       9.051   1.772   1.064  1.00  0.00     0.051 C 
HETATM   28  C25 UNL     1       7.645   0.380  -0.493  1.00  0.00     0.123 A 
HETATM   29  C24 UNL     1       6.425  -0.195  -0.861  1.00  0.00     0.055 A 
HETATM   30  F1  UNL     1       8.738   0.175  -1.272  1.00  0.00    -0.206 F 
ENDBRANCH   1  23
TORSDOF 3
