REMARK  3 active torsions:
REMARK  status: ('A' for Active; 'I' for Inactive)
REMARK    1  A    between atoms: C9_11  and  N1_12 
REMARK       I    between atoms: N1_12  and  C10_13 
REMARK    2  A    between atoms: C10_13  and  C11_15 
REMARK    3  A    between atoms: C16_21  and  C17_22 
ROOT
HETATM    1  N1  UNL     1      -0.478   0.104   0.255  1.00  0.00    -0.348 N 
HETATM    2  C10 UNL     1       0.830   0.578   0.609  1.00  0.00     0.252 C 
HETATM    3  O3  UNL     1       1.145   0.718   1.822  1.00  0.00    -0.268 OA
HETATM    4  H8  UNL     1      -0.663  -0.142  -0.744  1.00  0.00     0.163 HD
ENDROOT
BRANCH   1   5
HETATM    5  C9  UNL     1      -1.545  -0.077   1.247  1.00  0.00     0.128 C 
HETATM    6  C8  UNL     1      -2.653  -0.952   0.680  1.00  0.00    -0.002 A 
HETATM    7  C3  UNL     1      -3.823  -0.453   0.036  1.00  0.00     0.077 A 
HETATM    8  C7  UNL     1      -2.496  -2.348   0.805  1.00  0.00     0.012 A 
HETATM    9  O2  UNL     1      -4.067   0.908  -0.207  1.00  0.00    -0.343 OA
HETATM   10  C4  UNL     1      -4.818  -1.350  -0.374  1.00  0.00     0.037 A 
HETATM   11  C2  UNL     1      -3.074   1.879  -0.519  1.00  0.00     0.254 C 
HETATM   12  C1  UNL     1      -2.296   2.267   0.698  1.00  0.00     0.153 C 
HETATM   13  O1  UNL     1      -1.834   3.395   0.784  1.00  0.00    -0.296 OA
HETATM   14  C20 UNL     1      -2.046   1.274   1.794  1.00  0.00     0.110 C 
HETATM   15  C5  UNL     1      -4.652  -2.726  -0.216  1.00  0.00     0.003 A 
HETATM   16  C6  UNL     1      -3.487  -3.224   0.362  1.00  0.00     0.001 A 
ENDBRANCH   1   5
BRANCH   2  17
HETATM   17  C11 UNL     1       1.806   0.926  -0.448  1.00  0.00     0.041 A 
HETATM   18  C12 UNL     1       1.353   1.699  -1.532  1.00  0.00     0.021 A 
HETATM   19  C13 UNL     1       2.244   2.156  -2.502  1.00  0.00     0.043 A 
HETATM   20  C14 UNL     1       3.602   1.867  -2.392  1.00  0.00     0.117 A 
HETATM   21  F1  UNL     1       4.473   2.349  -3.313  1.00  0.00    -0.206 F 
HETATM   22  C15 UNL     1       4.069   1.089  -1.332  1.00  0.00     0.054 A 
HETATM   23  C16 UNL     1       3.179   0.555  -0.377  1.00  0.00     0.004 A 
BRANCH  23  24
HETATM   24  C17 UNL     1       3.727  -0.310   0.752  1.00  0.00     0.174 A 
HETATM   25  F2  UNL     1       3.991   0.412   1.904  1.00  0.00    -0.233 F 
HETATM   26  C18 UNL     1       2.981  -1.604   1.029  1.00  0.00     0.218 A 
HETATM   27  O4  UNL     1       4.098  -2.402   0.726  1.00  0.00    -0.384 OA
HETATM   28  C19 UNL     1       4.859  -1.265   0.405  1.00  0.00     0.218 A 
ENDBRANCH  23  24
ENDBRANCH   2  17
TORSDOF 3
