REMARK  6 active torsions:
REMARK  status: ('A' for Active; 'I' for Inactive)
REMARK       I    between atoms: C1_2  and  N1_3 
REMARK    1  A    between atoms: C1_2  and  C27_30 
REMARK       I    between atoms: N1_3  and  C2_4 
REMARK    2  A    between atoms: C2_4  and  C3_6 
REMARK    3  A    between atoms: C6_9  and  C26_29 
REMARK    4  A    between atoms: C7_10  and  C9_12 
REMARK    5  A    between atoms: C14_17  and  C15_18 
REMARK    6  A    between atoms: C20_23  and  C21_24 
ROOT
HETATM    1  O1  UNL     1       2.534   1.774  -0.340  1.00  0.00    -0.267 OA
HETATM    2  C1  UNL     1       2.272   0.595   0.030  1.00  0.00     0.258 C 
HETATM    3  N1  UNL     1       0.900   0.164   0.127  1.00  0.00    -0.289 N 
HETATM    4  C2  UNL     1      -0.212   1.048  -0.114  1.00  0.00     0.258 C 
HETATM    5  O2  UNL     1      -0.051   2.294  -0.005  1.00  0.00    -0.267 OA
HETATM    6  H1  UNL     1       0.699  -0.797   0.476  1.00  0.00     0.172 HD
ENDROOT
BRANCH   4   7
HETATM    7  C3  UNL     1      -1.555   0.521  -0.476  1.00  0.00     0.033 A 
HETATM    8  C4  UNL     1      -1.735  -0.817  -0.870  1.00  0.00     0.018 A 
HETATM    9  C5  UNL     1      -3.001  -1.288  -1.219  1.00  0.00     0.014 A 
HETATM   10  C6  UNL     1      -4.114  -0.435  -1.201  1.00  0.00    -0.014 A 
HETATM   11  C7  UNL     1      -3.943   0.917  -0.836  1.00  0.00    -0.013 A 
HETATM   12  C8  UNL     1      -2.667   1.380  -0.475  1.00  0.00     0.030 A 
BRANCH  10  13
HETATM   13  C26 UNL     1      -5.430  -0.963  -1.634  1.00  0.00    -0.014 A 
HETATM   14  C21 UNL     1      -6.527  -1.046  -0.745  1.00  0.00    -0.014 A 
HETATM   15  C22 UNL     1      -7.735  -1.604  -1.193  1.00  0.00     0.013 A 
HETATM   16  C23 UNL     1      -7.860  -2.057  -2.506  1.00  0.00     0.001 A 
HETATM   17  C24 UNL     1      -6.783  -1.969  -3.386  1.00  0.00     0.001 A 
HETATM   18  C25 UNL     1      -5.571  -1.429  -2.951  1.00  0.00     0.013 A 
BRANCH  14  19
HETATM   19  C20 UNL     1      -6.410  -0.625   0.671  1.00  0.00    -0.014 A 
HETATM   20  C15 UNL     1      -6.243   0.732   1.024  1.00  0.00    -0.014 A 
HETATM   21  C16 UNL     1      -6.200   1.091   2.383  1.00  0.00     0.013 A 
HETATM   22  C17 UNL     1      -6.305   0.117   3.378  1.00  0.00     0.001 A 
HETATM   23  C18 UNL     1      -6.463  -1.223   3.028  1.00  0.00     0.001 A 
HETATM   24  C19 UNL     1      -6.526  -1.594   1.684  1.00  0.00     0.013 A 
BRANCH  20  25
HETATM   25  C14 UNL     1      -6.162   1.796   0.000  1.00  0.00    -0.014 A 
HETATM   26  C9  UNL     1      -5.066   1.883  -0.888  1.00  0.00    -0.014 A 
HETATM   27  C10 UNL     1      -4.998   2.955  -1.794  1.00  0.00     0.013 A 
HETATM   28  C11 UNL     1      -6.004   3.922  -1.825  1.00  0.00     0.001 A 
HETATM   29  C12 UNL     1      -7.086   3.836  -0.949  1.00  0.00     0.001 A 
HETATM   30  C13 UNL     1      -7.165   2.779  -0.040  1.00  0.00     0.013 A 
ENDBRANCH  20  25
ENDBRANCH  14  19
ENDBRANCH  10  13
ENDBRANCH   4   7
BRANCH   2  31
HETATM   31  C27 UNL     1       3.396  -0.317   0.359  1.00  0.00     0.033 A 
HETATM   32  C28 UNL     1       4.635   0.222   0.740  1.00  0.00     0.032 A 
HETATM   33  C29 UNL     1       5.731  -0.604   1.028  1.00  0.00     0.010 A 
HETATM   34  C30 UNL     1       5.587  -2.004   0.910  1.00  0.00     0.090 A 
HETATM   35  C44 UNL     1       6.938   0.017   1.633  1.00  0.00    -0.013 A 
HETATM   36  C31 UNL     1       4.347  -2.543   0.558  1.00  0.00     0.039 A 
HETATM   37  O3  UNL     1       6.669  -2.876   1.071  1.00  0.00    -0.274 OA
HETATM   38  C32 UNL     1       3.264  -1.713   0.270  1.00  0.00     0.020 A 
HETATM   39  C33 UNL     1       7.836  -2.737   0.316  1.00  0.00     0.298 C 
HETATM   40  O4  UNL     1       8.812  -3.509   0.519  1.00  0.00    -0.259 OA
HETATM   41  C34 UNL     1       7.925  -1.690  -0.709  1.00  0.00     0.065 A 
HETATM   42  C35 UNL     1       7.185  -1.683  -1.809  1.00  0.00     0.017 A 
HETATM   43  C38 UNL     1       8.484  -0.332  -0.448  1.00  0.00     0.182 A 
HETATM   44  C36 UNL     1       7.146  -0.330  -2.335  1.00  0.00     0.001 A 
HETATM   45  C37 UNL     1       7.843   0.464  -1.538  1.00  0.00     0.026 A 
HETATM   46  F1  UNL     1       9.851  -0.390  -0.674  1.00  0.00    -0.228 F 
HETATM   47  C39 UNL     1       8.173   0.224   0.942  1.00  0.00     0.001 A 
HETATM   48  C40 UNL     1       9.168   1.014   1.567  1.00  0.00     0.012 A 
HETATM   49  C41 UNL     1       8.995   1.501   2.862  1.00  0.00     0.001 A 
HETATM   50  C42 UNL     1       7.822   1.234   3.555  1.00  0.00     0.001 A 
HETATM   51  C43 UNL     1       6.798   0.507   2.946  1.00  0.00     0.013 A 
ENDBRANCH   2  31
TORSDOF 6
