REMARK  2 active torsions:
REMARK  status: ('A' for Active; 'I' for Inactive)
REMARK    1  A    between atoms: C16_16  and  C17_17 
REMARK    2  A    between atoms: C22_22  and  O1_23 
ROOT
HETATM    1  C1  UNL     1       4.680  -0.347   1.315  1.00  0.00     0.001 A 
HETATM    2  C2  UNL     1       4.008   0.448   2.241  1.00  0.00     0.001 A 
HETATM    3  C3  UNL     1       2.833   1.104   1.876  1.00  0.00     0.013 A 
HETATM    4  C4  UNL     1       2.316   0.976   0.576  1.00  0.00    -0.019 A 
HETATM    5  C5  UNL     1       3.006   0.181  -0.375  1.00  0.00    -0.047 A 
HETATM    6  C6  UNL     1       4.186  -0.478   0.016  1.00  0.00     0.008 A 
HETATM    7  C7  UNL     1       2.556   0.077  -1.821  1.00  0.00     0.044 C 
HETATM    8  C8  UNL     1       1.175  -0.575  -2.060  1.00  0.00     0.044 C 
HETATM    9  C9  UNL     1       0.613  -1.330  -0.873  1.00  0.00    -0.047 A 
HETATM   10  C10 UNL     1       0.766  -2.724  -0.799  1.00  0.00     0.008 A 
HETATM   11  C11 UNL     1       0.231  -3.436   0.278  1.00  0.00     0.001 A 
HETATM   12  C12 UNL     1      -0.453  -2.765   1.293  1.00  0.00     0.001 A 
HETATM   13  C13 UNL     1      -0.596  -1.377   1.242  1.00  0.00     0.013 A 
HETATM   14  C14 UNL     1      -0.064  -0.649   0.165  1.00  0.00    -0.018 A 
HETATM   15  C15 UNL     1      -0.165   0.832   0.159  1.00  0.00    -0.003 A 
HETATM   16  C16 UNL     1      -1.422   1.477   0.043  1.00  0.00    -0.011 A 
HETATM   17  C23 UNL     1      -1.481   2.879   0.036  1.00  0.00     0.013 A 
HETATM   18  C24 UNL     1      -0.316   3.638   0.136  1.00  0.00     0.002 A 
HETATM   19  C25 UNL     1       0.922   3.010   0.268  1.00  0.00     0.013 A 
HETATM   20  C26 UNL     1       1.010   1.611   0.280  1.00  0.00    -0.013 A 
ENDROOT
BRANCH  16  21
HETATM   21  C17 UNL     1      -2.687   0.713  -0.032  1.00  0.00     0.008 A 
HETATM   22  C18 UNL     1      -3.587   0.766   1.044  1.00  0.00     0.015 A 
HETATM   23  C19 UNL     1      -4.775   0.031   1.008  1.00  0.00     0.001 A 
HETATM   24  C20 UNL     1      -5.077  -0.756  -0.105  1.00  0.00     0.003 A 
HETATM   25  C21 UNL     1      -4.195  -0.805  -1.187  1.00  0.00     0.037 A 
HETATM   26  C22 UNL     1      -3.002  -0.069  -1.161  1.00  0.00     0.076 A 
BRANCH  26  27
HETATM   27  O1  UNL     1      -2.138  -0.103  -2.254  1.00  0.00    -0.360 OA
HETATM   28  H17 UNL     1      -2.341  -0.661  -3.075  1.00  0.00     0.217 HD
ENDBRANCH  26  27
ENDBRANCH  16  21
TORSDOF 2
