REMARK  3 active torsions:
REMARK  status: ('A' for Active; 'I' for Inactive)
REMARK    1  A    between atoms: C4_6  and  C5_7 
REMARK    2  A    between atoms: C5_7  and  N3_8 
REMARK    3  A    between atoms: N3_8  and  C6_9 
ROOT
HETATM    1  N3  UNL     1      -0.250  -0.990   0.156  1.00  0.00     0.099 N 
HETATM    2  H8  UNL     1      -0.211  -1.719  -0.597  1.00  0.00     0.317 HD
ENDROOT
BRANCH   1   3
HETATM    3  C5  UNL     1       0.524  -1.449   1.316  1.00  0.00     0.351 C 
BRANCH   3   4
HETATM    4  C4  UNL     1       1.962  -1.600   0.930  1.00  0.00     0.163 A 
HETATM    5  N2  UNL     1       2.768  -0.599   0.540  1.00  0.00    -0.284 N 
HETATM    6  C3  UNL     1       2.574   0.733   0.393  1.00  0.00     0.117 A 
HETATM    7  C16 UNL     1       3.928  -1.203   0.275  1.00  0.00     0.226 A 
HETATM    8  C2  UNL     1       3.662   1.498  -0.056  1.00  0.00     0.111 A 
HETATM    9  N1  UNL     1       4.870   0.895  -0.327  1.00  0.00    -0.324 N 
HETATM   10  C1  UNL     1       5.995   1.706  -0.808  1.00  0.00     0.159 C 
HETATM   11  C17 UNL     1       5.021  -0.465  -0.172  1.00  0.00     0.295 A 
HETATM   12  O2  UNL     1       6.116  -1.037  -0.428  1.00  0.00    -0.264 OA
HETATM   13  N6  UNL     1       3.863  -2.532   0.485  1.00  0.00    -0.124 NA
HETATM   14  N5  UNL     1       2.622  -2.781   0.896  1.00  0.00    -0.132 NA
ENDBRANCH   3   4
ENDBRANCH   1   3
BRANCH   1  15
HETATM   15  C6  UNL     1      -1.656  -0.685   0.496  1.00  0.00     0.256 C 
HETATM   16  C7  UNL     1      -2.531  -1.958   0.418  1.00  0.00     0.060 C 
HETATM   17  C8  UNL     1      -3.701  -1.905   1.400  1.00  0.00     0.125 C 
HETATM   18  N4  UNL     1      -4.696  -0.918   1.001  1.00  0.00    -0.357 N 
HETATM   19  C9  UNL     1      -4.405   0.479   0.898  1.00  0.00     0.252 C 
HETATM   20  H14 UNL     1      -5.700  -1.196   1.073  1.00  0.00     0.162 HD
HETATM   21  O1  UNL     1      -5.069   1.292   1.596  1.00  0.00    -0.268 OA
HETATM   22  C10 UNL     1      -3.483   0.997  -0.139  1.00  0.00     0.040 A 
HETATM   23  C11 UNL     1      -3.916   2.093  -0.908  1.00  0.00     0.017 A 
HETATM   24  C15 UNL     1      -2.215   0.411  -0.407  1.00  0.00    -0.010 A 
HETATM   25  C12 UNL     1      -3.136   2.587  -1.951  1.00  0.00     0.001 A 
HETATM   26  C13 UNL     1      -1.912   1.996  -2.245  1.00  0.00     0.001 A 
HETATM   27  C14 UNL     1      -1.451   0.922  -1.483  1.00  0.00     0.010 A 
ENDBRANCH   1  15
TORSDOF 3
