REMARK  4 active torsions:
REMARK  status: ('A' for Active; 'I' for Inactive)
REMARK    1  A    between atoms: C5_5  and  C6_6 
REMARK       I    between atoms: C6_6  and  N1_8 
REMARK    2  A    between atoms: N1_8  and  C7_9 
REMARK    3  A    between atoms: C15_17  and  C16_18 
REMARK    4  A    between atoms: C24_26  and  O2_27 
ROOT
HETATM    1  C7  UNL     1       0.022   0.848  -1.348  1.00  0.00     0.085 C 
HETATM    2  C8  UNL     1      -0.421   0.625   0.110  1.00  0.00     0.030 C 
HETATM    3  C9  UNL     1      -1.940   0.465   0.246  1.00  0.00     0.042 C 
HETATM    4  C10 UNL     1      -2.458  -0.959   0.043  1.00  0.00    -0.041 A 
HETATM    5  C11 UNL     1      -1.882  -1.875  -0.899  1.00  0.00    -0.051 A 
HETATM    6  C12 UNL     1      -2.378  -3.190  -0.966  1.00  0.00     0.007 A 
HETATM    7  C13 UNL     1      -3.452  -3.596  -0.185  1.00  0.00     0.001 A 
HETATM    8  C14 UNL     1      -4.067  -2.698   0.675  1.00  0.00     0.013 A 
HETATM    9  C15 UNL     1      -3.601  -1.381   0.785  1.00  0.00    -0.019 A 
HETATM   10  C22 UNL     1      -0.693  -1.566  -1.796  1.00  0.00     0.041 C 
HETATM   11  C23 UNL     1      -0.664  -0.127  -2.326  1.00  0.00     0.030 C 
ENDROOT
BRANCH   1  12
HETATM   12  N1  UNL     1       1.482   0.733  -1.442  1.00  0.00    -0.352 N 
HETATM   13  C6  UNL     1       2.366   1.722  -0.891  1.00  0.00     0.254 C 
HETATM   14  O1  UNL     1       1.912   2.849  -0.552  1.00  0.00    -0.268 OA
HETATM   15  H6  UNL     1       1.902  -0.066  -1.969  1.00  0.00     0.163 HD
BRANCH  13  16
HETATM   16  C5  UNL     1       3.814   1.450  -0.749  1.00  0.00     0.068 A 
HETATM   17  C4  UNL     1       4.733   2.489  -0.966  1.00  0.00     0.020 A 
HETATM   18  C3  UNL     1       6.105   2.261  -0.851  1.00  0.00     0.011 A 
HETATM   19  C2  UNL     1       6.586   0.988  -0.517  1.00  0.00    -0.021 A 
HETATM   20  C1  UNL     1       8.062   0.752  -0.371  1.00  0.00     0.051 C 
HETATM   21  C25 UNL     1       5.675  -0.049  -0.264  1.00  0.00     0.156 A 
HETATM   22  C24 UNL     1       4.291   0.176  -0.372  1.00  0.00     0.120 A 
HETATM   23  F1  UNL     1       6.132  -1.275   0.101  1.00  0.00    -0.203 F 
BRANCH  22  24
HETATM   24  O2  UNL     1       3.393  -0.851  -0.078  1.00  0.00    -0.357 OA
HETATM   25  H24 UNL     1       3.702  -1.774   0.203  1.00  0.00     0.218 HD
ENDBRANCH  22  24
ENDBRANCH  13  16
ENDBRANCH   1  12
BRANCH   9  26
HETATM   26  C16 UNL     1      -4.353  -0.466   1.676  1.00  0.00    -0.025 A 
HETATM   27  C17 UNL     1      -5.007   0.661   1.149  1.00  0.00     0.012 A 
HETATM   28  C18 UNL     1      -5.724   1.516   1.991  1.00  0.00     0.001 A 
HETATM   29  C19 UNL     1      -5.801   1.247   3.361  1.00  0.00     0.000 A 
HETATM   30  C20 UNL     1      -5.164   0.122   3.890  1.00  0.00     0.001 A 
HETATM   31  C21 UNL     1      -4.445  -0.736   3.051  1.00  0.00     0.012 A 
ENDBRANCH   9  26
TORSDOF 4
