REMARK  1 active torsions:
REMARK  status: ('A' for Active; 'I' for Inactive)
REMARK    1  A    between atoms: C12_13  and  C13_14 
ROOT
HETATM    1  C1  UNL     1      -5.235   2.201   0.896  1.00  0.00     0.048 C 
HETATM    2  C2  UNL     1      -3.914   1.489   0.910  1.00  0.00    -0.060 A 
HETATM    3  C3  UNL     1      -2.947   1.822   1.875  1.00  0.00     0.008 A 
HETATM    4  C4  UNL     1      -1.725   1.146   1.919  1.00  0.00     0.017 A 
HETATM    5  C5  UNL     1      -1.478   0.112   1.014  1.00  0.00     0.025 A 
HETATM    6  C6  UNL     1      -2.445  -0.246   0.024  1.00  0.00     0.049 A 
HETATM    7  C7  UNL     1      -3.665   0.451  -0.005  1.00  0.00     0.037 A 
HETATM    8  N1  UNL     1      -2.108  -1.281  -0.960  1.00  0.00    -0.331 N 
HETATM    9  C8  UNL     1      -2.925  -1.559  -2.142  1.00  0.00     0.158 C 
HETATM   10  C9  UNL     1      -0.798  -1.858  -0.794  1.00  0.00     0.150 C 
HETATM   11  C10 UNL     1       0.149  -1.746  -1.731  1.00  0.00     0.057 C 
HETATM   12  C11 UNL     1       1.562  -1.439  -1.325  1.00  0.00     0.016 C 
HETATM   13  C12 UNL     1       1.942  -0.685  -0.235  1.00  0.00    -0.023 C 
HETATM   14  C19 UNL     1       0.964  -0.058   0.728  1.00  0.00     0.050 C 
HETATM   15  C20 UNL     1      -0.212  -0.646   0.960  1.00  0.00     0.091 C 
HETATM   16  O1  UNL     1      -0.355  -1.931   0.502  1.00  0.00    -0.293 OA
ENDROOT
BRANCH  13  17
HETATM   17  C13 UNL     1       3.378  -0.360  -0.035  1.00  0.00    -0.026 A 
HETATM   18  C14 UNL     1       4.209  -0.017  -1.120  1.00  0.00     0.012 A 
HETATM   19  C15 UNL     1       5.555   0.296  -0.910  1.00  0.00     0.001 A 
HETATM   20  C16 UNL     1       6.086   0.276   0.382  1.00  0.00     0.000 A 
HETATM   21  C17 UNL     1       5.271  -0.053   1.467  1.00  0.00     0.001 A 
HETATM   22  C18 UNL     1       3.924  -0.366   1.262  1.00  0.00     0.012 A 
ENDBRANCH  13  17
TORSDOF 1
