REMARK  4 active torsions:
REMARK  status: ('A' for Active; 'I' for Inactive)
REMARK       I    between atoms: C2_2  and  N1_4 
REMARK    1  A    between atoms: C4_6  and  C5_7 
REMARK       I    between atoms: N2_12  and  C10_13 
REMARK    2  A    between atoms: C10_13  and  C11_15 
REMARK    3  A    between atoms: C11_15  and  N3_17 
REMARK    4  A    between atoms: N3_17  and  C12_18 
ROOT
HETATM    1  C5  UNL     1      -2.254  -0.898  -0.026  1.00  0.00     0.011 C 
HETATM    2  C6  UNL     1      -2.656  -2.394  -0.015  1.00  0.00     0.007 C 
HETATM    3  C7  UNL     1      -1.497  -3.384  -0.217  1.00  0.00     0.002 C 
HETATM    4  C8  UNL     1      -0.596  -3.040  -1.412  1.00  0.00     0.020 C 
HETATM    5  C9  UNL     1       0.254  -1.758  -1.250  1.00  0.00     0.126 C 
HETATM    6  N2  UNL     1       0.259  -1.233   0.129  1.00  0.00    -0.348 N 
HETATM    7  C10 UNL     1       1.477  -1.236   0.898  1.00  0.00     0.273 C 
HETATM    8  O2  UNL     1       1.447  -1.601   2.106  1.00  0.00    -0.268 OA
HETATM    9  C18 UNL     1      -0.943  -0.651   0.761  1.00  0.00     0.131 C 
ENDROOT
BRANCH   7  10
HETATM   10  C11 UNL     1       2.791  -0.825   0.287  1.00  0.00     0.362 C 
HETATM   11  F1  UNL     1       3.561  -1.957   0.086  1.00  0.00    -0.216 F 
BRANCH  10  12
HETATM   12  N3  UNL     1       3.509   0.112   1.157  1.00  0.00    -0.352 N 
HETATM   13  H17 UNL     1       3.086   0.376   2.076  1.00  0.00     0.163 HD
BRANCH  12  14
HETATM   14  C12 UNL     1       4.767   0.721   0.803  1.00  0.00     0.030 A 
HETATM   15  C13 UNL     1       5.395   1.580   1.720  1.00  0.00     0.032 A 
HETATM   16  C14 UNL     1       6.614   2.188   1.405  1.00  0.00     0.044 A 
HETATM   17  C15 UNL     1       7.219   1.945   0.170  1.00  0.00     0.116 A 
HETATM   18  F2  UNL     1       8.402   2.535  -0.134  1.00  0.00    -0.206 F 
HETATM   19  C16 UNL     1       6.605   1.095  -0.752  1.00  0.00     0.044 A 
HETATM   20  C17 UNL     1       5.386   0.484  -0.442  1.00  0.00     0.032 A 
ENDBRANCH  12  14
ENDBRANCH  10  12
ENDBRANCH   7  10
BRANCH   1  21
HETATM   21  C4  UNL     1      -3.397  -0.049   0.586  1.00  0.00     0.027 A 
HETATM   22  C3  UNL     1      -4.642   0.043  -0.251  1.00  0.00     0.132 A 
HETATM   23  N1  UNL     1      -4.555   1.491  -0.506  1.00  0.00    -0.352 N 
HETATM   24  C2  UNL     1      -5.305   2.482  -1.203  1.00  0.00     0.215 C 
HETATM   25  C19 UNL     1      -3.321   1.424   0.297  1.00  0.00     0.132 A 
HETATM   26  C1  UNL     1      -4.839   3.900  -1.218  1.00  0.00     0.117 C 
HETATM   27  O1  UNL     1      -6.355   2.156  -1.817  1.00  0.00    -0.274 OA
ENDBRANCH   1  21
TORSDOF 4
