REMARK  2 active torsions:
REMARK  status: ('A' for Active; 'I' for Inactive)
REMARK       I    between atoms: C1_2  and  N1_3 
REMARK    1  A    between atoms: C1_2  and  C22_27 
REMARK       I    between atoms: N1_3  and  C2_4 
REMARK    2  A    between atoms: C2_4  and  C3_6 
ROOT
HETATM    1  O1  UNL     1       0.897  -2.181   2.899  1.00  0.00    -0.267 OA
HETATM    2  C1  UNL     1       0.950  -1.159   2.162  1.00  0.00     0.258 C 
HETATM    3  N1  UNL     1      -0.221  -0.745   1.434  1.00  0.00    -0.289 N 
HETATM    4  C2  UNL     1      -1.437  -1.510   1.399  1.00  0.00     0.258 C 
HETATM    5  O2  UNL     1      -1.725  -2.277   2.359  1.00  0.00    -0.267 OA
HETATM    6  H1  UNL     1      -0.215   0.167   0.929  1.00  0.00     0.172 HD
ENDROOT
BRANCH   2   7
HETATM    7  C22 UNL     1       2.231  -0.411   2.059  1.00  0.00     0.033 A 
HETATM    8  C23 UNL     1       3.203  -0.560   3.058  1.00  0.00     0.018 A 
HETATM    9  C24 UNL     1       4.422   0.111   2.970  1.00  0.00     0.014 A 
HETATM   10  C25 UNL     1       4.709   0.944   1.878  1.00  0.00    -0.011 A 
HETATM   11  C26 UNL     1       3.738   1.106   0.857  1.00  0.00     0.022 A 
HETATM   12  C41 UNL     1       6.019   1.641   1.873  1.00  0.00    -0.014 A 
HETATM   13  C27 UNL     1       2.514   0.419   0.960  1.00  0.00     0.033 A 
HETATM   14  C28 UNL     1       3.925   2.001  -0.313  1.00  0.00     0.164 C 
HETATM   15  O4  UNL     1       2.989   2.786  -0.625  1.00  0.00    -0.292 OA
HETATM   16  C29 UNL     1       5.169   2.014  -1.157  1.00  0.00     0.123 C 
HETATM   17  C30 UNL     1       5.874   0.678  -1.161  1.00  0.00    -0.040 A 
HETATM   18  C31 UNL     1       5.608  -0.251  -2.181  1.00  0.00     0.008 A 
HETATM   19  C35 UNL     1       6.788   0.340  -0.140  1.00  0.00    -0.018 A 
HETATM   20  C32 UNL     1       6.270  -1.482  -2.208  1.00  0.00     0.001 A 
HETATM   21  C33 UNL     1       7.198  -1.799  -1.215  1.00  0.00     0.001 A 
HETATM   22  C34 UNL     1       7.458  -0.893  -0.184  1.00  0.00     0.013 A 
HETATM   23  C36 UNL     1       7.047   1.275   0.973  1.00  0.00    -0.014 A 
HETATM   24  C37 UNL     1       8.318   1.857   1.097  1.00  0.00     0.013 A 
HETATM   25  C38 UNL     1       8.570   2.797   2.097  1.00  0.00     0.001 A 
HETATM   26  C39 UNL     1       7.557   3.162   2.984  1.00  0.00     0.001 A 
HETATM   27  C40 UNL     1       6.291   2.581   2.880  1.00  0.00     0.013 A 
ENDBRANCH   2   7
BRANCH   4  28
HETATM   28  C3  UNL     1      -2.369  -1.392   0.253  1.00  0.00     0.033 A 
HETATM   29  C4  UNL     1      -3.716  -1.769   0.392  1.00  0.00     0.030 A 
HETATM   30  C5  UNL     1      -4.607  -1.681  -0.691  1.00  0.00    -0.008 A 
HETATM   31  C6  UNL     1      -4.137  -1.223  -1.942  1.00  0.00     0.043 A 
HETATM   32  C21 UNL     1      -6.002  -2.138  -0.500  1.00  0.00    -0.014 A 
HETATM   33  C7  UNL     1      -2.788  -0.870  -2.083  1.00  0.00     0.019 A 
HETATM   34  C9  UNL     1      -5.015  -1.146  -3.128  1.00  0.00     0.257 C 
HETATM   35  C8  UNL     1      -1.914  -0.946  -0.997  1.00  0.00     0.018 A 
HETATM   36  O3  UNL     1      -4.685  -1.770  -4.173  1.00  0.00    -0.267 OA
HETATM   37  N2  UNL     1      -6.187  -0.321  -3.146  1.00  0.00    -0.322 N 
HETATM   38  C10 UNL     1      -6.471   0.625  -2.110  1.00  0.00     0.046 A 
HETATM   39  H5  UNL     1      -6.699  -0.221  -4.053  1.00  0.00     0.169 HD
HETATM   40  C11 UNL     1      -6.388   1.995  -2.394  1.00  0.00     0.030 A 
HETATM   41  C15 UNL     1      -6.894   0.199  -0.835  1.00  0.00     0.002 A 
HETATM   42  C12 UNL     1      -6.692   2.939  -1.410  1.00  0.00     0.002 A 
HETATM   43  C13 UNL     1      -7.098   2.520  -0.142  1.00  0.00     0.001 A 
HETATM   44  C14 UNL     1      -7.208   1.156   0.144  1.00  0.00     0.014 A 
HETATM   45  C16 UNL     1      -7.089  -1.236  -0.540  1.00  0.00    -0.013 A 
HETATM   46  C17 UNL     1      -8.387  -1.705  -0.276  1.00  0.00     0.013 A 
HETATM   47  C18 UNL     1      -8.607  -3.053   0.014  1.00  0.00     0.001 A 
HETATM   48  C19 UNL     1      -7.534  -3.944   0.050  1.00  0.00     0.001 A 
HETATM   49  C20 UNL     1      -6.238  -3.490  -0.199  1.00  0.00     0.013 A 
ENDBRANCH   4  28
TORSDOF 2
