REMARK  6 active torsions:
REMARK  status: ('A' for Active; 'I' for Inactive)
REMARK    1  A    between atoms: C4_4  and  C5_5 
REMARK    2  A    between atoms: C5_5  and  O1_6 
REMARK    3  A    between atoms: O1_6  and  C6_7 
REMARK    4  A    between atoms: C6_7  and  C7_8 
REMARK       I    between atoms: C7_8  and  N1_10 
REMARK    5  A    between atoms: C11_14  and  C12_15 
REMARK    6  A    between atoms: C15_18  and  O3_19 
ROOT
HETATM    1  C7  UNL     1       2.303   1.030  -0.235  1.00  0.00     0.244 C 
HETATM    2  O2  UNL     1       2.538   1.850  -1.164  1.00  0.00    -0.271 OA
HETATM    3  N1  UNL     1       1.059   0.309  -0.225  1.00  0.00    -0.322 N 
HETATM    4  C8  UNL     1       0.044   0.445  -1.251  1.00  0.00     0.163 C 
HETATM    5  C9  UNL     1      -0.980  -0.634  -0.897  1.00  0.00     0.245 C 
HETATM    6  C10 UNL     1      -2.457  -0.235  -1.187  1.00  0.00     0.078 C 
HETATM    7  C11 UNL     1      -3.404  -0.392   0.045  1.00  0.00     0.257 C 
HETATM    8  N2  UNL     1      -3.658  -1.814   0.453  1.00  0.00     0.095 N 
HETATM    9  C18 UNL     1      -4.834  -2.410  -0.216  1.00  0.00     0.310 C 
HETATM   10  C19 UNL     1      -2.508  -2.744   0.294  1.00  0.00     0.303 C 
HETATM   11  C20 UNL     1      -1.186  -2.273   0.944  1.00  0.00     0.305 C 
HETATM   12  N3  UNL     1      -0.776  -0.918   0.532  1.00  0.00     0.114 N 
HETATM   13  C21 UNL     1       0.629  -0.608   0.816  1.00  0.00     0.400 C 
ENDROOT
BRANCH   1  14
HETATM   14  C6  UNL     1       3.301   0.880   0.878  1.00  0.00     0.271 C 
BRANCH  14  15
HETATM   15  O1  UNL     1       4.602   1.116   0.382  1.00  0.00    -0.376 OA
BRANCH  15  16
HETATM   16  C5  UNL     1       5.526   1.080   1.447  1.00  0.00     0.235 C 
BRANCH  16  17
HETATM   17  C4  UNL     1       6.905   1.219   0.894  1.00  0.00     0.104 A 
HETATM   18  C3  UNL     1       7.704   0.198   0.427  1.00  0.00     0.066 A 
HETATM   19  C2  UNL     1       8.844   0.853   0.011  1.00  0.00     0.060 A 
HETATM   20  C1  UNL     1      10.026   0.223  -0.647  1.00  0.00     0.072 C 
HETATM   21  N4  UNL     1       8.706   2.180   0.201  1.00  0.00    -0.133 NA
HETATM   22  O4  UNL     1       7.533   2.361   0.735  1.00  0.00    -0.215 OA
ENDBRANCH  16  17
ENDBRANCH  15  16
ENDBRANCH  14  15
ENDBRANCH   1  14
BRANCH   7  23
HETATM   23  C12 UNL     1      -4.692   0.422  -0.097  1.00  0.00    -0.025 A 
HETATM   24  C13 UNL     1      -5.338   0.589  -1.340  1.00  0.00     0.012 A 
HETATM   25  C14 UNL     1      -6.537   1.303  -1.426  1.00  0.00     0.037 A 
HETATM   26  C15 UNL     1      -7.118   1.848  -0.275  1.00  0.00     0.065 A 
HETATM   27  C16 UNL     1      -6.495   1.673   0.963  1.00  0.00     0.037 A 
HETATM   28  C17 UNL     1      -5.297   0.961   1.055  1.00  0.00     0.012 A 
BRANCH  26  29
HETATM   29  O3  UNL     1      -8.314   2.558  -0.351  1.00  0.00    -0.361 OA
HETATM   30  H17 UNL     1      -8.791   2.699  -1.234  1.00  0.00     0.217 HD
ENDBRANCH  26  29
ENDBRANCH   7  23
TORSDOF 6
