REMARK  5 active torsions:
REMARK  status: ('A' for Active; 'I' for Inactive)
REMARK    1  A    between atoms: N1_1  and  C1_2 
REMARK    2  A    between atoms: C5_6  and  C6_7 
REMARK    3  A    between atoms: C9_10  and  C10_11 
REMARK    4  A    between atoms: C14_15  and  C15_16 
REMARK    5  A    between atoms: C23_24  and  C24_25 
ROOT
HETATM    1  C6  UNL     1      -0.802   1.010   0.564  1.00  0.00    -0.015 A 
HETATM    2  C7  UNL     1       0.391   1.583   1.031  1.00  0.00     0.014 A 
HETATM    3  C8  UNL     1       1.610   1.287   0.421  1.00  0.00     0.013 A 
HETATM    4  C9  UNL     1       1.666   0.407  -0.671  1.00  0.00    -0.025 A 
HETATM    5  C22 UNL     1       0.477  -0.182  -1.132  1.00  0.00     0.025 A 
HETATM    6  C23 UNL     1      -0.758   0.106  -0.524  1.00  0.00    -0.014 A 
ENDROOT
BRANCH   6   7
HETATM    7  C24 UNL     1      -1.968  -0.620  -0.979  1.00  0.00    -0.023 C 
HETATM    8  C25 UNL     1      -2.330  -0.531  -2.264  1.00  0.00     0.015 C 
HETATM    9  C26 UNL     1      -3.385  -1.354  -2.853  1.00  0.00     0.043 C 
HETATM   10  C27 UNL     1      -4.622  -1.403  -2.365  1.00  0.00     0.117 C 
HETATM   11  F1  UNL     1      -5.553  -2.112  -3.051  1.00  0.00    -0.206 F 
HETATM   12  C28 UNL     1      -5.094  -0.556  -1.253  1.00  0.00     0.056 C 
HETATM   13  C29 UNL     1      -4.850  -0.820   0.050  1.00  0.00    -0.004 C 
HETATM   14  C30 UNL     1      -5.861  -0.479   0.973  1.00  0.00     0.015 C 
HETATM   15  C33 UNL     1      -3.735  -1.568   0.538  1.00  0.00     0.067 C 
HETATM   16  C31 UNL     1      -5.866  -1.020   2.255  1.00  0.00     0.020 C 
HETATM   17  C32 UNL     1      -4.854  -1.894   2.626  1.00  0.00     0.117 C 
HETATM   18  N2  UNL     1      -3.817  -2.123   1.782  1.00  0.00    -0.260 NA
HETATM   19  C34 UNL     1      -2.527  -1.639  -0.058  1.00  0.00     0.044 C 
ENDBRANCH   6   7
BRANCH   1  20
HETATM   20  C5  UNL     1      -2.077   1.415   1.194  1.00  0.00    -0.023 A 
HETATM   21  C4  UNL     1      -2.275   1.233   2.572  1.00  0.00     0.012 A 
HETATM   22  C3  UNL     1      -3.466   1.650   3.172  1.00  0.00     0.003 A 
HETATM   23  C2  UNL     1      -4.462   2.261   2.406  1.00  0.00     0.029 A 
HETATM   24  C1  UNL     1      -4.274   2.453   1.030  1.00  0.00     0.026 A 
HETATM   25  C35 UNL     1      -3.081   2.031   0.428  1.00  0.00     0.041 A 
BRANCH  24  26
HETATM   26  N1  UNL     1      -5.301   3.061   0.242  1.00  0.00    -0.399 N 
HETATM   27  H1  UNL     1      -6.198   3.370   0.679  1.00  0.00     0.156 HD
HETATM   28  H2  UNL     1      -5.177   3.193  -0.787  1.00  0.00     0.156 HD
ENDBRANCH  24  26
ENDBRANCH   1  20
BRANCH   4  29
HETATM   29  C10 UNL     1       2.963   0.094  -1.324  1.00  0.00    -0.025 A 
HETATM   30  C11 UNL     1       3.052   0.011  -2.724  1.00  0.00     0.012 A 
HETATM   31  C12 UNL     1       4.271  -0.277  -3.339  1.00  0.00     0.002 A 
HETATM   32  C13 UNL     1       5.416  -0.486  -2.567  1.00  0.00     0.012 A 
HETATM   33  C14 UNL     1       5.353  -0.410  -1.165  1.00  0.00    -0.025 A 
HETATM   34  C21 UNL     1       4.120  -0.119  -0.552  1.00  0.00     0.024 A 
BRANCH  33  35
HETATM   35  C15 UNL     1       6.569  -0.639  -0.344  1.00  0.00    -0.026 A 
HETATM   36  C16 UNL     1       7.811  -0.110  -0.742  1.00  0.00     0.012 A 
HETATM   37  C17 UNL     1       8.955  -0.326   0.033  1.00  0.00     0.001 A 
HETATM   38  C18 UNL     1       8.873  -1.072   1.211  1.00  0.00     0.000 A 
HETATM   39  C19 UNL     1       7.647  -1.603   1.616  1.00  0.00     0.001 A 
HETATM   40  C20 UNL     1       6.500  -1.389   0.846  1.00  0.00     0.012 A 
ENDBRANCH  33  35
ENDBRANCH   4  29
TORSDOF 5
