REMARK  4 active torsions:
REMARK  status: ('A' for Active; 'I' for Inactive)
REMARK    1  A    between atoms: C1_2  and  C2_5 
REMARK    2  A    between atoms: C8_11  and  C9_12 
REMARK    3  A    between atoms: C9_12  and  N1_13 
REMARK    4  A    between atoms: C18_23  and  C19_24 
ROOT
HETATM    1  N1  UNL     1      -0.938   0.757  -1.748  1.00  0.00    -0.395 N 
HETATM    2  C10 UNL     1      -1.246   0.037  -3.010  1.00  0.00     0.145 C 
HETATM    3  C11 UNL     1      -2.296  -1.092  -2.891  1.00  0.00     0.195 C 
HETATM    4  O1  UNL     1      -1.975  -2.076  -1.907  1.00  0.00    -0.349 OA
HETATM    5  C12 UNL     1      -1.801  -1.903  -0.520  1.00  0.00     0.077 A 
HETATM    6  C13 UNL     1      -1.616  -3.072   0.229  1.00  0.00     0.037 A 
HETATM    7  C14 UNL     1      -1.277  -3.014   1.580  1.00  0.00     0.003 A 
HETATM    8  C15 UNL     1      -1.097  -1.781   2.197  1.00  0.00     0.001 A 
HETATM    9  C16 UNL     1      -1.295  -0.603   1.478  1.00  0.00     0.012 A 
HETATM   10  C17 UNL     1      -1.710  -0.638   0.127  1.00  0.00     0.002 A 
HETATM   11  C18 UNL     1      -1.939   0.646  -0.660  1.00  0.00     0.148 C 
ENDROOT
BRANCH   1  12
HETATM   12  C9  UNL     1       0.490   0.772  -1.327  1.00  0.00     0.155 C 
BRANCH  12  13
HETATM   13  C8  UNL     1       1.213  -0.598  -1.414  1.00  0.00     0.182 A 
HETATM   14  C6  UNL     1       2.216  -0.762  -0.406  1.00  0.00     0.007 A 
HETATM   15  C5  UNL     1       3.141  -0.804  -1.449  1.00  0.00     0.078 A 
HETATM   16  C7  UNL     1       2.560  -0.888   0.923  1.00  0.00     0.029 A 
HETATM   17  C4  UNL     1       4.495  -0.975  -1.250  1.00  0.00     0.038 A 
HETATM   18  O2  UNL     1       2.136  -0.625  -2.455  1.00  0.00    -0.339 OA
HETATM   19  C3  UNL     1       4.897  -1.108   0.103  1.00  0.00     0.019 A 
HETATM   20  C2  UNL     1       3.951  -1.048   1.187  1.00  0.00     0.048 A 
BRANCH  20  21
HETATM   21  C1  UNL     1       4.427  -1.245   2.603  1.00  0.00     0.417 C 
HETATM   22  F1  UNL     1       4.494  -2.598   2.876  1.00  0.00    -0.166 F 
HETATM   23  F2  UNL     1       3.562  -0.646   3.502  1.00  0.00    -0.166 F 
HETATM   24  F3  UNL     1       5.682  -0.687   2.773  1.00  0.00    -0.166 F 
ENDBRANCH  20  21
ENDBRANCH  12  13
ENDBRANCH   1  12
BRANCH  11  25
HETATM   25  C19 UNL     1      -2.076   1.929   0.165  1.00  0.00    -0.031 A 
HETATM   26  C20 UNL     1      -3.044   1.982   1.190  1.00  0.00     0.009 A 
HETATM   27  C21 UNL     1      -3.245   3.151   1.928  1.00  0.00     0.001 A 
HETATM   28  C22 UNL     1      -2.511   4.300   1.631  1.00  0.00     0.000 A 
HETATM   29  C23 UNL     1      -1.589   4.286   0.584  1.00  0.00     0.001 A 
HETATM   30  C24 UNL     1      -1.384   3.118  -0.158  1.00  0.00     0.009 A 
ENDBRANCH  11  25
TORSDOF 4
