REMARK  2 active torsions:
REMARK  status: ('A' for Active; 'I' for Inactive)
REMARK    1  A    between atoms: C4_4  and  C5_5 
REMARK       I    between atoms: C5_5  and  N1_7 
REMARK    2  A    between atoms: N1_7  and  C6_8 
ROOT
HETATM    1  C5  UNL     1      -0.725  -1.034   1.258  1.00  0.00     0.241 C 
HETATM    2  O1  UNL     1      -0.809  -2.289   1.160  1.00  0.00    -0.271 OA
HETATM    3  N1  UNL     1       0.567  -0.409   1.322  1.00  0.00    -0.348 N 
HETATM    4  H8  UNL     1       0.602   0.606   1.557  1.00  0.00     0.163 HD
ENDROOT
BRANCH   3   5
HETATM    5  C6  UNL     1       1.759  -1.031   0.732  1.00  0.00     0.154 C 
HETATM    6  C7  UNL     1       1.937  -0.533  -0.690  1.00  0.00     0.001 A 
HETATM    7  C8  UNL     1       1.577  -1.385  -1.753  1.00  0.00     0.012 A 
HETATM    8  C12 UNL     1       2.255   0.815  -0.977  1.00  0.00     0.077 A 
HETATM    9  C9  UNL     1       1.530  -0.909  -3.065  1.00  0.00     0.001 A 
HETATM   10  C10 UNL     1       1.822   0.427  -3.334  1.00  0.00     0.003 A 
HETATM   11  C11 UNL     1       2.178   1.285  -2.294  1.00  0.00     0.037 A 
HETATM   12  O2  UNL     1       2.634   1.716   0.019  1.00  0.00    -0.350 OA
HETATM   13  C13 UNL     1       3.734   1.476   0.887  1.00  0.00     0.178 C 
HETATM   14  C14 UNL     1       3.341   0.576   2.053  1.00  0.00     0.066 C 
HETATM   15  C15 UNL     1       3.008  -0.862   1.626  1.00  0.00     0.199 C 
HETATM   16  F1  UNL     1       4.107  -1.433   1.003  1.00  0.00    -0.247 F 
ENDBRANCH   3   5
BRANCH   1  17
HETATM   17  C4  UNL     1      -1.987  -0.208   1.412  1.00  0.00     0.179 C 
HETATM   18  C3  UNL     1      -1.992   1.137   0.641  1.00  0.00     0.050 C 
HETATM   19  C2  UNL     1      -1.566   1.072  -0.842  1.00  0.00     0.046 C 
HETATM   20  C1  UNL     1      -1.219   2.469  -1.357  1.00  0.00     0.021 C 
HETATM   21  S1  UNL     1      -2.902   0.392  -1.886  1.00  0.00    -0.155 SA
HETATM   22  C18 UNL     1      -2.676  -1.337  -1.373  1.00  0.00     0.177 C 
HETATM   23  C17 UNL     1      -3.490  -1.614  -0.145  1.00  0.00     0.229 C 
HETATM   24  N2  UNL     1      -3.209  -0.999   1.136  1.00  0.00    -0.342 N 
HETATM   25  O3  UNL     1      -4.472  -2.399  -0.256  1.00  0.00    -0.273 OA
HETATM   26  C16 UNL     1      -4.186  -1.207   2.215  1.00  0.00     0.153 C 
ENDBRANCH   1  17
TORSDOF 2
