REMARK  5 active torsions:
REMARK  status: ('A' for Active; 'I' for Inactive)
REMARK    1  A    between atoms: C7_7  and  C8_8 
REMARK    2  A    between atoms: C8_8  and  N1_9 
REMARK    3  A    between atoms: C17_19  and  C18_20 
REMARK    4  A    between atoms: C18_20  and  S1_21 
REMARK    5  A    between atoms: S1_21  and  N3_22 
ROOT
HETATM    1  N1  UNL     1       0.007  -0.192   0.917  1.00  0.00    -0.374 N 
HETATM    2  C9  UNL     1      -0.499  -1.066   2.011  1.00  0.00     0.143 C 
HETATM    3  C10 UNL     1      -0.658  -2.559   1.601  1.00  0.00     0.148 C 
HETATM    4  N2  UNL     1      -1.255  -2.601   0.289  1.00  0.00    -0.351 N 
HETATM    5  C11 UNL     1      -1.624  -1.718  -0.716  1.00  0.00     0.062 A 
HETATM    6  C12 UNL     1      -1.840  -3.057  -0.894  1.00  0.00     0.121 A 
HETATM    7  C13 UNL     1      -1.610  -0.302  -0.967  1.00  0.00     0.019 A 
HETATM    8  C14 UNL     1      -2.342   0.295  -1.993  1.00  0.00     0.016 A 
HETATM    9  C15 UNL     1      -2.403   1.686  -2.066  1.00  0.00     0.002 A 
HETATM   10  C16 UNL     1      -1.773   2.471  -1.093  1.00  0.00     0.010 A 
HETATM   11  C17 UNL     1      -1.035   1.877  -0.051  1.00  0.00    -0.015 A 
HETATM   12  C19 UNL     1      -0.907   0.467  -0.012  1.00  0.00     0.050 A 
ENDROOT
BRANCH   1  13
HETATM   13  C8  UNL     1       1.460  -0.033   0.713  1.00  0.00     0.162 C 
BRANCH  13  14
HETATM   14  C7  UNL     1       1.990  -1.009  -0.318  1.00  0.00    -0.034 A 
HETATM   15  C2  UNL     1       2.053  -0.710  -1.707  1.00  0.00    -0.054 A 
HETATM   16  C1  UNL     1       1.726   0.656  -2.256  1.00  0.00     0.049 C 
HETATM   17  C3  UNL     1       2.473  -1.707  -2.606  1.00  0.00     0.007 A 
HETATM   18  C4  UNL     1       2.868  -2.963  -2.145  1.00  0.00     0.001 A 
HETATM   19  C5  UNL     1       2.867  -3.236  -0.779  1.00  0.00     0.001 A 
HETATM   20  C6  UNL     1       2.442  -2.265   0.127  1.00  0.00     0.009 A 
ENDBRANCH  13  14
ENDBRANCH   1  13
BRANCH  11  21
HETATM   21  C18 UNL     1      -0.508   2.760   1.055  1.00  0.00     0.198 C 
BRANCH  21  22
HETATM   22  S1  UNL     1      -1.819   3.186   2.192  1.00  0.00     0.211 S 
HETATM   23  O1  UNL     1      -2.460   1.933   2.720  1.00  0.00    -0.211 OA
HETATM   24  O2  UNL     1      -2.855   4.016   1.489  1.00  0.00    -0.211 OA
BRANCH  22  25
HETATM   25  N3  UNL     1      -1.164   4.090   3.511  1.00  0.00    -0.229 NA
HETATM   26  H20 UNL     1      -0.435   3.491   3.960  1.00  0.00     0.136 HD
HETATM   27  H21 UNL     1      -0.668   4.913   3.101  1.00  0.00     0.136 HD
ENDBRANCH  22  25
ENDBRANCH  21  22
ENDBRANCH  11  21
TORSDOF 5
