REMARK  2 active torsions:
REMARK  status: ('A' for Active; 'I' for Inactive)
REMARK    1  A    between atoms: O1_2  and  C2_3 
REMARK    2  A    between atoms: C7_8  and  O2_9 
REMARK       I    between atoms: N1_13  and  C11_14 
REMARK       I    between atoms: C11_14  and  N2_16 
ROOT
HETATM    1  C2  UNL     1      -5.041  -0.693   0.480  1.00  0.00     0.102 A 
HETATM    2  C3  UNL     1      -3.893  -1.501   0.565  1.00  0.00     0.047 A 
HETATM    3  C4  UNL     1      -2.665  -1.072   0.036  1.00  0.00    -0.047 A 
HETATM    4  C5  UNL     1      -2.584   0.194  -0.589  1.00  0.00    -0.047 A 
HETATM    5  C6  UNL     1      -3.734   0.997  -0.670  1.00  0.00     0.047 A 
HETATM    6  C7  UNL     1      -4.961   0.561  -0.140  1.00  0.00     0.102 A 
HETATM    7  C9  UNL     1      -1.281   0.716  -1.153  1.00  0.00     0.059 C 
HETATM    8  C10 UNL     1      -0.242   0.946  -0.049  1.00  0.00     0.132 C 
HETATM    9  N1  UNL     1       0.391  -0.321   0.339  1.00  0.00    -0.334 N 
HETATM   10  C11 UNL     1       1.647  -0.698  -0.255  1.00  0.00     0.321 C 
HETATM   11  O3  UNL     1       1.777  -1.848  -0.756  1.00  0.00    -0.247 OA
HETATM   12  N2  UNL     1       2.761   0.215  -0.266  1.00  0.00    -0.323 N 
HETATM   13  C12 UNL     1       2.957   1.175   0.826  1.00  0.00     0.212 C 
HETATM   14  C13 UNL     1       4.368   1.099   1.327  1.00  0.00     0.177 C 
HETATM   15  O4  UNL     1       4.631   1.502   2.493  1.00  0.00    -0.290 OA
HETATM   16  C14 UNL     1       5.446   0.600   0.442  1.00  0.00     0.019 A 
HETATM   17  C15 UNL     1       6.780   0.557   0.885  1.00  0.00     0.016 A 
HETATM   18  C16 UNL     1       7.791   0.095   0.038  1.00  0.00     0.001 A 
HETATM   19  C17 UNL     1       7.482  -0.329  -1.255  1.00  0.00     0.001 A 
HETATM   20  C18 UNL     1       6.160  -0.299  -1.705  1.00  0.00     0.010 A 
HETATM   21  C19 UNL     1       5.133   0.150  -0.860  1.00  0.00    -0.026 A 
HETATM   22  C20 UNL     1       3.719   0.220  -1.379  1.00  0.00     0.167 C 
HETATM   23  C21 UNL     1      -0.388  -1.321   1.077  1.00  0.00     0.132 C 
HETATM   24  C22 UNL     1      -1.451  -1.963   0.177  1.00  0.00     0.059 C 
ENDROOT
BRANCH   6  25
HETATM   25  O2  UNL     1      -6.123   1.345  -0.207  1.00  0.00    -0.353 OA
HETATM   26  C8  UNL     1      -6.195   2.636  -0.804  1.00  0.00     0.210 C 
ENDBRANCH   6  25
BRANCH   1  27
HETATM   27  O1  UNL     1      -6.280  -1.098   1.002  1.00  0.00    -0.353 OA
HETATM   28  C1  UNL     1      -6.514  -2.340   1.658  1.00  0.00     0.210 C 
ENDBRANCH   1  27
TORSDOF 2
