REMARK  3 active torsions:
REMARK  status: ('A' for Active; 'I' for Inactive)
REMARK    1  A    between atoms: C1_2  and  C2_3 
REMARK       I    between atoms: C1_2  and  N1_13 
REMARK    2  A    between atoms: C13_15  and  C14_16 
REMARK    3  A    between atoms: C17_19  and  C18_20 
ROOT
HETATM    1  O1  UNL     1      -1.916   3.258  -2.372  1.00  0.00    -0.267 OA
HETATM    2  C1  UNL     1      -2.042   2.156  -1.771  1.00  0.00     0.258 C 
HETATM    3  N1  UNL     1      -0.903   1.276  -1.650  1.00  0.00    -0.310 N 
HETATM    4  C12 UNL     1       0.172   1.393  -2.652  1.00  0.00     0.162 C 
HETATM    5  C13 UNL     1       1.067   0.139  -2.776  1.00  0.00     0.136 C 
HETATM    6  N2  UNL     1       0.231  -1.063  -2.838  1.00  0.00    -0.347 N 
HETATM    7  C26 UNL     1      -0.446  -1.609  -1.698  1.00  0.00     0.254 C 
HETATM    8  O2  UNL     1      -0.944  -2.765  -1.774  1.00  0.00    -0.268 OA
HETATM    9  C27 UNL     1      -0.539  -0.859  -0.428  1.00  0.00     0.059 A 
HETATM   10  C28 UNL     1      -0.454  -1.552   0.791  1.00  0.00     0.019 A 
HETATM   11  C29 UNL     1      -0.520  -0.862   2.004  1.00  0.00     0.001 A 
HETATM   12  C30 UNL     1      -0.681   0.523   2.012  1.00  0.00     0.002 A 
HETATM   13  C31 UNL     1      -0.785   1.222   0.809  1.00  0.00     0.031 A 
HETATM   14  C32 UNL     1      -0.715   0.543  -0.420  1.00  0.00     0.053 A 
HETATM   15  H20 UNL     1       0.216  -1.609  -3.730  1.00  0.00     0.163 HD
ENDROOT
BRANCH   2  16
HETATM   16  C2  UNL     1      -3.360   1.797  -1.196  1.00  0.00     0.033 A 
HETATM   17  C3  UNL     1      -4.216   2.802  -0.715  1.00  0.00     0.018 A 
HETATM   18  C4  UNL     1      -5.454   2.475  -0.157  1.00  0.00     0.013 A 
HETATM   19  C5  UNL     1      -5.861   1.136  -0.078  1.00  0.00    -0.026 A 
HETATM   20  C6  UNL     1      -7.101   0.796   0.485  1.00  0.00     0.012 A 
HETATM   21  C10 UNL     1      -5.014   0.117  -0.575  1.00  0.00    -0.025 A 
HETATM   22  C7  UNL     1      -7.496  -0.543   0.554  1.00  0.00     0.001 A 
HETATM   23  C8  UNL     1      -6.660  -1.549   0.063  1.00  0.00     0.001 A 
HETATM   24  C9  UNL     1      -5.424  -1.224  -0.501  1.00  0.00     0.012 A 
HETATM   25  C11 UNL     1      -3.775   0.456  -1.138  1.00  0.00     0.029 A 
ENDBRANCH   2  16
BRANCH   5  26
HETATM   26  C14 UNL     1       2.179  -0.024  -1.739  1.00  0.00    -0.034 A 
HETATM   27  C15 UNL     1       2.423   0.904  -0.705  1.00  0.00     0.010 A 
HETATM   28  C16 UNL     1       3.444   0.685   0.223  1.00  0.00     0.013 A 
HETATM   29  C17 UNL     1       4.258  -0.456   0.136  1.00  0.00    -0.026 A 
HETATM   30  C24 UNL     1       4.034  -1.370  -0.906  1.00  0.00     0.013 A 
HETATM   31  C25 UNL     1       3.012  -1.152  -1.833  1.00  0.00     0.010 A 
BRANCH  29  32
HETATM   32  C18 UNL     1       5.337  -0.692   1.129  1.00  0.00    -0.026 A 
HETATM   33  C19 UNL     1       5.573  -1.984   1.635  1.00  0.00     0.012 A 
HETATM   34  C20 UNL     1       6.588  -2.203   2.571  1.00  0.00     0.001 A 
HETATM   35  C21 UNL     1       7.378  -1.139   3.012  1.00  0.00     0.000 A 
HETATM   36  C22 UNL     1       7.154   0.148   2.517  1.00  0.00     0.001 A 
HETATM   37  C23 UNL     1       6.139   0.373   1.581  1.00  0.00     0.012 A 
ENDBRANCH  29  32
ENDBRANCH   5  26
TORSDOF 3
