REMARK  2 active torsions:
REMARK  status: ('A' for Active; 'I' for Inactive)
REMARK       I    between atoms: C1_2  and  N1_3 
REMARK    1  A    between atoms: C1_2  and  C11_16 
REMARK    2  A    between atoms: C21_26  and  O4_27 
ROOT
HETATM    1  O1  UNL     1      -1.814  -2.264  -0.330  1.00  0.00    -0.267 OA
HETATM    2  C1  UNL     1      -1.483  -1.047  -0.339  1.00  0.00     0.258 C 
HETATM    3  N1  UNL     1      -2.479  -0.032  -0.603  1.00  0.00    -0.304 N 
HETATM    4  C2  UNL     1      -2.131   1.314  -1.054  1.00  0.00     0.235 C 
HETATM    5  C3  UNL     1      -2.237   2.293   0.068  1.00  0.00     0.242 C 
HETATM    6  O2  UNL     1      -1.554   3.350   0.000  1.00  0.00    -0.271 OA
HETATM    7  N2  UNL     1      -3.052   2.070   1.230  1.00  0.00    -0.292 N 
HETATM    8  C4  UNL     1      -4.260   1.290   1.330  1.00  0.00     0.260 C 
HETATM    9  O3  UNL     1      -4.955   1.427   2.373  1.00  0.00    -0.267 OA
HETATM   10  C5  UNL     1      -4.746   0.340   0.289  1.00  0.00     0.059 A 
HETATM   11  C6  UNL     1      -6.124   0.044   0.235  1.00  0.00     0.019 A 
HETATM   12  C7  UNL     1      -6.620  -0.896  -0.671  1.00  0.00     0.001 A 
HETATM   13  C8  UNL     1      -5.751  -1.562  -1.533  1.00  0.00     0.002 A 
HETATM   14  C9  UNL     1      -4.384  -1.287  -1.491  1.00  0.00     0.031 A 
HETATM   15  C10 UNL     1      -3.873  -0.350  -0.578  1.00  0.00     0.053 A 
HETATM   16  H3  UNL     1      -2.829   2.670   2.057  1.00  0.00     0.172 HD
ENDROOT
BRANCH   2  17
HETATM   17  C11 UNL     1      -0.070  -0.707  -0.078  1.00  0.00     0.033 A 
HETATM   18  C12 UNL     1       0.269   0.250   0.908  1.00  0.00     0.018 A 
HETATM   19  C13 UNL     1       1.611   0.568   1.163  1.00  0.00     0.014 A 
HETATM   20  C14 UNL     1       2.596  -0.092   0.430  1.00  0.00    -0.019 A 
HETATM   21  C15 UNL     1       2.280  -1.044  -0.520  1.00  0.00    -0.042 A 
HETATM   22  C23 UNL     1       4.037   0.030   0.486  1.00  0.00    -0.016 A 
HETATM   23  C16 UNL     1       0.951  -1.373  -0.786  1.00  0.00     0.025 A 
HETATM   24  C17 UNL     1       3.512  -1.616  -1.160  1.00  0.00     0.078 A 
HETATM   25  C18 UNL     1       4.579  -0.850  -0.432  1.00  0.00    -0.043 A 
HETATM   26  C19 UNL     1       5.961  -0.947  -0.595  1.00  0.00     0.011 A 
HETATM   27  C20 UNL     1       6.791  -0.133   0.193  1.00  0.00     0.037 A 
HETATM   28  C21 UNL     1       6.233   0.765   1.131  1.00  0.00     0.066 A 
HETATM   29  C22 UNL     1       4.838   0.849   1.281  1.00  0.00     0.049 A 
BRANCH  28  30
HETATM   30  O4  UNL     1       7.055   1.572   1.913  1.00  0.00    -0.361 OA
HETATM   31  H15 UNL     1       8.065   1.537   1.830  1.00  0.00     0.217 HD
ENDBRANCH  28  30
ENDBRANCH   2  17
TORSDOF 2
