REMARK  5 active torsions:
REMARK  status: ('A' for Active; 'I' for Inactive)
REMARK    1  A    between atoms: N1_9  and  C8_10 
REMARK    2  A    between atoms: C8_10  and  C9_11 
REMARK    3  A    between atoms: C14_16  and  C15_17 
REMARK    4  A    between atoms: C15_17  and  C16_18 
REMARK    5  A    between atoms: C16_18  and  O3_20 
ROOT
HETATM    1  C1  UNL     1       5.753   0.177   1.526  1.00  0.00     0.048 C 
HETATM    2  C2  UNL     1       4.363   0.625   1.173  1.00  0.00    -0.061 C 
HETATM    3  C3  UNL     1       3.775   1.719   1.983  1.00  0.00     0.007 C 
HETATM    4  C4  UNL     1       2.470   1.942   2.187  1.00  0.00     0.002 C 
HETATM    5  C5  UNL     1       1.361   1.129   1.656  1.00  0.00     0.018 C 
HETATM    6  C6  UNL     1       1.338   0.557   0.444  1.00  0.00     0.044 C 
HETATM    7  C7  UNL     1       0.181  -0.262   0.059  1.00  0.00     0.263 C 
HETATM    8  O1  UNL     1      -0.240  -1.122   0.880  1.00  0.00    -0.267 OA
HETATM    9  N1  UNL     1      -0.469  -0.088  -1.218  1.00  0.00    -0.255 N 
HETATM   10  C17 UNL     1      -0.122   1.021  -2.070  1.00  0.00     0.374 C 
HETATM   11  O4  UNL     1      -1.037   1.654  -2.660  1.00  0.00    -0.237 OA
HETATM   12  O5  UNL     1       1.202   1.375  -2.359  1.00  0.00    -0.272 OA
HETATM   13  C18 UNL     1       2.374   0.899  -1.759  1.00  0.00     0.160 C 
HETATM   14  C19 UNL     1       2.493   0.589  -0.461  1.00  0.00     0.003 C 
HETATM   15  C20 UNL     1       3.809   0.164   0.041  1.00  0.00     0.021 C 
ENDROOT
BRANCH   9  16
HETATM   16  C8  UNL     1      -1.421  -1.088  -1.744  1.00  0.00     0.176 C 
BRANCH  16  17
HETATM   17  C9  UNL     1      -2.452  -1.546  -0.725  1.00  0.00    -0.033 A 
HETATM   18  C10 UNL     1      -2.441  -2.899  -0.335  1.00  0.00     0.009 A 
HETATM   19  C11 UNL     1      -3.357  -3.383   0.599  1.00  0.00     0.001 A 
HETATM   20  C12 UNL     1      -4.301  -2.527   1.159  1.00  0.00     0.001 A 
HETATM   21  C13 UNL     1      -4.338  -1.185   0.783  1.00  0.00     0.008 A 
HETATM   22  C14 UNL     1      -3.431  -0.676  -0.167  1.00  0.00    -0.040 A 
BRANCH  22  23
HETATM   23  C15 UNL     1      -3.519   0.791  -0.513  1.00  0.00     0.149 C 
BRANCH  23  24
HETATM   24  C16 UNL     1      -2.676   1.623   0.406  1.00  0.00     0.143 C 
HETATM   25  O2  UNL     1      -2.121   2.668  -0.027  1.00  0.00    -0.650 OA
BRANCH  24  26
HETATM   26  O3  UNL     1      -2.556   1.285   1.751  1.00  0.00    -0.776 OA
HETATM   27  H15 UNL     1      -2.013   1.859   2.384  1.00  0.00     0.167 HD
ENDBRANCH  24  26
ENDBRANCH  23  24
ENDBRANCH  22  23
ENDBRANCH  16  17
ENDBRANCH   9  16
TORSDOF 5
