REMARK  1 active torsions:
REMARK  status: ('A' for Active; 'I' for Inactive)
REMARK    1  A    between atoms: C5_5  and  C6_6 
REMARK       I    between atoms: C6_6  and  N1_8 
ROOT
HETATM    1  C6  UNL     1       2.186  -1.374   1.490  1.00  0.00     0.264 C 
HETATM    2  O1  UNL     1       2.432  -2.245   2.370  1.00  0.00    -0.267 OA
HETATM    3  N1  UNL     1       0.852  -0.832   1.378  1.00  0.00    -0.313 N 
HETATM    4  C7  UNL     1      -0.274  -1.659   1.865  1.00  0.00     0.133 C 
HETATM    5  C8  UNL     1      -1.645  -0.962   1.787  1.00  0.00     0.035 C 
HETATM    6  C9  UNL     1      -2.200  -0.847   0.335  1.00  0.00    -0.007 C 
HETATM    7  C10 UNL     1      -2.786  -2.213  -0.154  1.00  0.00     0.019 C 
HETATM    8  C11 UNL     1      -4.187  -1.940  -0.726  1.00  0.00     0.040 C 
HETATM    9  C12 UNL     1      -4.489  -0.563  -0.283  1.00  0.00    -0.051 A 
HETATM   10  C13 UNL     1      -5.703   0.108  -0.448  1.00  0.00     0.007 A 
HETATM   11  C14 UNL     1      -5.813   1.429   0.007  1.00  0.00     0.001 A 
HETATM   12  C15 UNL     1      -4.713   2.060   0.611  1.00  0.00     0.001 A 
HETATM   13  C16 UNL     1      -3.500   1.372   0.761  1.00  0.00     0.008 A 
HETATM   14  C17 UNL     1      -3.407   0.048   0.307  1.00  0.00    -0.043 A 
HETATM   15  C18 UNL     1      -1.139  -0.337  -0.683  1.00  0.00     0.055 C 
HETATM   16  C19 UNL     1      -0.294   0.781  -0.128  1.00  0.00    -0.029 A 
HETATM   17  C20 UNL     1      -0.454   2.092  -0.606  1.00  0.00     0.033 A 
HETATM   18  C21 UNL     1       0.325   3.131  -0.089  1.00  0.00     0.034 A 
HETATM   19 CL1  UNL     1       0.113   4.766  -0.687  1.00  0.00    -0.084 Cl
HETATM   20  C22 UNL     1       1.269   2.868   0.906  1.00  0.00     0.026 A 
HETATM   21  C23 UNL     1       1.437   1.569   1.387  1.00  0.00     0.032 A 
HETATM   22  C24 UNL     1       0.661   0.513   0.877  1.00  0.00     0.043 A 
ENDROOT
BRANCH   1  23
HETATM   23  C5  UNL     1       3.279  -0.945   0.581  1.00  0.00     0.100 A 
HETATM   24  C4  UNL     1       3.016  -0.716  -0.778  1.00  0.00     0.025 A 
HETATM   25  C3  UNL     1       4.038  -0.312  -1.634  1.00  0.00     0.026 A 
HETATM   26  C2  UNL     1       5.331  -0.133  -1.130  1.00  0.00     0.008 A 
HETATM   27  C1  UNL     1       6.447   0.264  -2.050  1.00  0.00     0.068 C 
HETATM   28  N2  UNL     1       5.584  -0.388   0.186  1.00  0.00    -0.327 N 
HETATM   29  C25 UNL     1       4.600  -0.780   1.045  1.00  0.00     0.261 A 
HETATM   30  H23 UNL     1       6.557  -0.276   0.552  1.00  0.00     0.169 HD
HETATM   31  O2  UNL     1       4.881  -0.980   2.258  1.00  0.00    -0.267 OA
ENDBRANCH   1  23
TORSDOF 1
