REMARK  4 active torsions:
REMARK  status: ('A' for Active; 'I' for Inactive)
REMARK       I    between atoms: C1_2  and  N1_3 
REMARK       I    between atoms: C1_2  and  N3_25 
REMARK    1  A    between atoms: N1_3  and  C2_4 
REMARK    2  A    between atoms: N3_25  and  C21_26 
REMARK    3  A    between atoms: C21_26  and  C22_27 
REMARK    4  A    between atoms: C21_26  and  C28_33 
ROOT
HETATM    1  O1  UNL     1      -0.046  -0.142   0.774  1.00  0.00    -0.247 OA
HETATM    2  C1  UNL     1      -0.067  -0.714  -0.349  1.00  0.00     0.321 C 
HETATM    3  N1  UNL     1       0.955  -0.448  -1.323  1.00  0.00    -0.309 N 
HETATM    4  N3  UNL     1      -1.152  -1.587  -0.688  1.00  0.00    -0.330 N 
HETATM    5  H1  UNL     1       0.760  -0.733  -2.310  1.00  0.00     0.170 HD
HETATM    6  H14 UNL     1      -1.256  -1.875  -1.689  1.00  0.00     0.165 HD
ENDROOT
BRANCH   3   7
HETATM    7  C2  UNL     1       2.181   0.260  -1.061  1.00  0.00     0.037 A 
HETATM    8  C3  UNL     1       2.797   0.962  -2.104  1.00  0.00     0.030 A 
HETATM    9  C4  UNL     1       4.005   1.628  -1.896  1.00  0.00     0.015 A 
HETATM   10  C5  UNL     1       4.635   1.586  -0.643  1.00  0.00    -0.009 A 
HETATM   11  C6  UNL     1       4.031   0.870   0.414  1.00  0.00     0.045 A 
HETATM   12  C20 UNL     1       5.903   2.328  -0.460  1.00  0.00    -0.014 A 
HETATM   13  C7  UNL     1       2.811   0.211   0.195  1.00  0.00     0.047 A 
HETATM   14  C8  UNL     1       4.631   0.816   1.763  1.00  0.00     0.257 C 
HETATM   15  O2  UNL     1       3.962   1.234   2.746  1.00  0.00    -0.267 OA
HETATM   16  N2  UNL     1       5.921   0.235   1.990  1.00  0.00    -0.322 N 
HETATM   17  C9  UNL     1       6.623  -0.486   0.970  1.00  0.00     0.046 A 
HETATM   18  H5  UNL     1       6.231   0.106   2.979  1.00  0.00     0.169 HD
HETATM   19  C10 UNL     1       6.786  -1.872   1.101  1.00  0.00     0.030 A 
HETATM   20  C14 UNL     1       7.196   0.185  -0.130  1.00  0.00     0.002 A 
HETATM   21  C11 UNL     1       7.488  -2.594   0.133  1.00  0.00     0.002 A 
HETATM   22  C12 UNL     1       8.047  -1.935  -0.964  1.00  0.00     0.001 A 
HETATM   23  C13 UNL     1       7.908  -0.550  -1.092  1.00  0.00     0.014 A 
HETATM   24  C15 UNL     1       7.127   1.657  -0.242  1.00  0.00    -0.013 A 
HETATM   25  C16 UNL     1       8.318   2.399  -0.162  1.00  0.00     0.013 A 
HETATM   26  C17 UNL     1       8.294   3.789  -0.283  1.00  0.00     0.001 A 
HETATM   27  C18 UNL     1       7.085   4.452  -0.495  1.00  0.00     0.001 A 
HETATM   28  C19 UNL     1       5.896   3.726  -0.590  1.00  0.00     0.013 A 
ENDBRANCH   3   7
BRANCH   4  29
HETATM   29  C21 UNL     1      -2.167  -2.021   0.281  1.00  0.00     0.152 C 
BRANCH  29  30
HETATM   30  C22 UNL     1      -2.432  -3.501   0.068  1.00  0.00    -0.031 A 
HETATM   31  C23 UNL     1      -3.059  -3.955  -1.108  1.00  0.00     0.009 A 
HETATM   32  C24 UNL     1      -3.286  -5.320  -1.306  1.00  0.00     0.001 A 
HETATM   33  C25 UNL     1      -2.884  -6.245  -0.338  1.00  0.00     0.000 A 
HETATM   34  C26 UNL     1      -2.253  -5.806   0.828  1.00  0.00     0.001 A 
HETATM   35  C27 UNL     1      -2.024  -4.442   1.031  1.00  0.00     0.009 A 
ENDBRANCH  29  30
BRANCH  29  36
HETATM   36  C28 UNL     1      -3.438  -1.178   0.183  1.00  0.00    -0.029 A 
HETATM   37  C29 UNL     1      -4.656  -1.670   0.686  1.00  0.00     0.010 A 
HETATM   38  C30 UNL     1      -5.811  -0.891   0.647  1.00  0.00     0.015 A 
HETATM   39  C31 UNL     1      -5.780   0.425   0.155  1.00  0.00     0.002 A 
HETATM   40  C32 UNL     1      -4.540   0.966  -0.272  1.00  0.00     0.046 A 
HETATM   41  C41 UNL     1      -7.058   1.188   0.072  1.00  0.00    -0.017 A 
HETATM   42  C33 UNL     1      -3.395   0.154  -0.272  1.00  0.00     0.040 A 
HETATM   43  N4  UNL     1      -4.408   2.324  -0.729  1.00  0.00    -0.326 N 
HETATM   44  C34 UNL     1      -4.997   3.444  -0.057  1.00  0.00     0.226 C 
HETATM   45  H24 UNL     1      -3.681   2.531  -1.453  1.00  0.00     0.169 HD
HETATM   46  O3  UNL     1      -4.712   4.613  -0.431  1.00  0.00    -0.273 OA
HETATM   47  C35 UNL     1      -5.960   3.244   1.067  1.00  0.00     0.142 C 
HETATM   48  C36 UNL     1      -7.163   2.522   0.534  1.00  0.00    -0.038 A 
HETATM   49  C37 UNL     1      -8.394   3.195   0.446  1.00  0.00     0.008 A 
HETATM   50  C38 UNL     1      -9.514   2.553  -0.084  1.00  0.00     0.001 A 
HETATM   51  C39 UNL     1      -9.415   1.239  -0.542  1.00  0.00     0.001 A 
HETATM   52  C40 UNL     1      -8.199   0.560  -0.464  1.00  0.00     0.013 A 
ENDBRANCH  29  36
ENDBRANCH   4  29
TORSDOF 4
