REMARK  3 active torsions:
REMARK  status: ('A' for Active; 'I' for Inactive)
REMARK    1  A    between atoms: C5_6  and  C6_7 
REMARK       I    between atoms: C6_7  and  N2_9 
REMARK    2  A    between atoms: N2_9  and  C7_10 
REMARK    3  A    between atoms: C18_22  and  C19_23 
ROOT
HETATM    1  C7  UNL     1      -0.259   0.572  -0.027  1.00  0.00     0.120 C 
HETATM    2  C8  UNL     1      -0.726   1.436   1.147  1.00  0.00     0.071 C 
HETATM    3  C9  UNL     1      -1.863   2.319   0.724  1.00  0.00    -0.022 A 
HETATM    4  C10 UNL     1      -1.729   3.714   0.868  1.00  0.00     0.010 A 
HETATM    5  C11 UNL     1      -2.768   4.571   0.504  1.00  0.00     0.001 A 
HETATM    6  C12 UNL     1      -3.955   4.049  -0.003  1.00  0.00     0.003 A 
HETATM    7  C13 UNL     1      -4.102   2.669  -0.150  1.00  0.00     0.038 A 
HETATM    8  C14 UNL     1      -3.066   1.790   0.196  1.00  0.00     0.082 A 
HETATM    9  O2  UNL     1      -3.328   0.420   0.022  1.00  0.00    -0.314 OA
HETATM   10  C15 UNL     1      -2.454  -0.675  -0.093  1.00  0.00     0.059 C 
HETATM   11  C16 UNL     1      -1.123  -0.658  -0.137  1.00  0.00    -0.027 C 
HETATM   12  C17 UNL     1      -0.567  -2.034  -0.313  1.00  0.00     0.052 C 
HETATM   13  C18 UNL     1      -1.795  -2.917  -0.576  1.00  0.00     0.103 C 
HETATM   14  C20 UNL     1      -3.005  -2.048  -0.206  1.00  0.00     0.079 C 
ENDROOT
BRANCH   1  15
HETATM   15  N2  UNL     1       1.148   0.204   0.178  1.00  0.00    -0.348 N 
HETATM   16  C6  UNL     1       2.228   0.921  -0.438  1.00  0.00     0.254 C 
HETATM   17  O1  UNL     1       1.991   1.966  -1.104  1.00  0.00    -0.268 OA
HETATM   18  H7  UNL     1       1.372  -0.430   0.976  1.00  0.00     0.163 HD
BRANCH  16  19
HETATM   19  C5  UNL     1       3.630   0.487  -0.268  1.00  0.00     0.054 A 
HETATM   20  C2  UNL     1       4.125  -0.789  -0.020  1.00  0.00    -0.030 A 
HETATM   21  C1  UNL     1       3.364  -2.069   0.125  1.00  0.00     0.050 C 
HETATM   22  C3  UNL     1       5.500  -0.670   0.046  1.00  0.00     0.095 A 
HETATM   23  N1  UNL     1       5.861   0.607  -0.170  1.00  0.00    -0.374 N 
HETATM   24  C4  UNL     1       4.734   1.315  -0.369  1.00  0.00     0.105 A 
HETATM   25  H5  UNL     1       6.836   0.980  -0.185  1.00  0.00     0.164 HD
ENDBRANCH  16  19
ENDBRANCH   1  15
BRANCH  13  26
HETATM   26  C19 UNL     1      -1.754  -4.250   0.189  1.00  0.00     0.392 C 
HETATM   27  F1  UNL     1      -0.641  -4.975  -0.198  1.00  0.00    -0.171 F 
HETATM   28  F2  UNL     1      -1.697  -4.032   1.555  1.00  0.00    -0.171 F 
HETATM   29  F3  UNL     1      -2.887  -4.989  -0.101  1.00  0.00    -0.171 F 
ENDBRANCH  13  26
TORSDOF 3
