REMARK  3 active torsions:
REMARK  status: ('A' for Active; 'I' for Inactive)
REMARK    1  A    between atoms: O1_2  and  C2_3 
REMARK    2  A    between atoms: C13_15  and  C14_16 
REMARK    3  A    between atoms: C19_21  and  C20_22 
ROOT
HETATM    1  C2  UNL     1       5.589   0.374   0.110  1.00  0.00     0.068 A 
HETATM    2  C3  UNL     1       5.293  -0.497  -0.941  1.00  0.00     0.037 A 
HETATM    3  C4  UNL     1       3.969  -0.815  -1.249  1.00  0.00     0.015 A 
HETATM    4  C5  UNL     1       2.908  -0.268  -0.507  1.00  0.00    -0.018 A 
HETATM    5  C6  UNL     1       3.199   0.604   0.567  1.00  0.00    -0.044 A 
HETATM    6  C7  UNL     1       4.536   0.927   0.861  1.00  0.00     0.044 A 
HETATM    7  C8  UNL     1       2.088   1.224   1.373  1.00  0.00     0.047 C 
HETATM    8  C9  UNL     1       1.376   2.306   0.559  1.00  0.00     0.088 C 
HETATM    9  C10 UNL     1       0.749   1.802  -0.716  1.00  0.00     0.160 C 
HETATM   10  O2  UNL     1       0.341   2.650  -1.555  1.00  0.00    -0.292 OA
HETATM   11  C11 UNL     1       0.490   0.366  -0.970  1.00  0.00     0.022 A 
HETATM   12  C12 UNL     1      -0.806  -0.017  -1.349  1.00  0.00     0.028 A 
HETATM   13  C13 UNL     1      -1.126  -1.365  -1.563  1.00  0.00    -0.024 A 
HETATM   14  C26 UNL     1      -0.121  -2.333  -1.458  1.00  0.00     0.013 A 
HETATM   15  C27 UNL     1       1.180  -1.964  -1.115  1.00  0.00     0.014 A 
HETATM   16  C28 UNL     1       1.505  -0.619  -0.862  1.00  0.00    -0.011 A 
ENDROOT
BRANCH  13  17
HETATM   17  C14 UNL     1      -2.522  -1.766  -1.864  1.00  0.00    -0.015 A 
HETATM   18  C15 UNL     1      -2.777  -2.527  -3.018  1.00  0.00     0.013 A 
HETATM   19  C16 UNL     1      -4.084  -2.884  -3.358  1.00  0.00     0.001 A 
HETATM   20  C17 UNL     1      -5.150  -2.490  -2.550  1.00  0.00     0.001 A 
HETATM   21  C18 UNL     1      -4.914  -1.745  -1.393  1.00  0.00     0.013 A 
HETATM   22  C19 UNL     1      -3.606  -1.383  -1.030  1.00  0.00    -0.010 A 
BRANCH  22  23
HETATM   23  C20 UNL     1      -3.393  -0.645   0.239  1.00  0.00     0.032 A 
HETATM   24  C21 UNL     1      -2.567  -1.179   1.233  1.00  0.00     0.022 A 
HETATM   25  C22 UNL     1      -2.317  -0.455   2.393  1.00  0.00     0.075 A 
HETATM   26  C23 UNL     1      -2.910   0.798   2.567  1.00  0.00     0.249 A 
HETATM   27  O3  UNL     1      -2.654   1.452   3.615  1.00  0.00    -0.268 OA
HETATM   28  N1  UNL     1      -3.754   1.306   1.610  1.00  0.00    -0.294 N 
HETATM   29  C24 UNL     1      -4.348   2.640   1.782  1.00  0.00     0.162 C 
HETATM   30  C25 UNL     1      -3.983   0.612   0.449  1.00  0.00     0.204 A 
HETATM   31  F1  UNL     1      -4.754   1.155  -0.531  1.00  0.00    -0.185 F 
ENDBRANCH  22  23
ENDBRANCH  13  17
BRANCH   1  32
HETATM   32  O1  UNL     1       6.936   0.665   0.373  1.00  0.00    -0.356 OA
HETATM   33  C1  UNL     1       7.385   1.533   1.408  1.00  0.00     0.210 C 
ENDBRANCH   1  32
TORSDOF 3
