REMARK  3 active torsions:
REMARK  status: ('A' for Active; 'I' for Inactive)
REMARK    1  A    between atoms: C7_8  and  C8_9 
REMARK    2  A    between atoms: C13_14  and  C14_15 
REMARK    3  A    between atoms: C18_22  and  N1_23 
ROOT
HETATM    1  O1  UNL     1       2.942  -1.990   0.413  1.00  0.00    -0.296 OA
HETATM    2  C1  UNL     1       2.511  -1.522  -0.631  1.00  0.00     0.160 C 
HETATM    3  C2  UNL     1       2.206  -2.465  -1.778  1.00  0.00     0.085 C 
HETATM    4  C3  UNL     1       0.765  -2.387  -2.335  1.00  0.00     0.046 C 
HETATM    5  C4  UNL     1      -0.241  -1.787  -1.374  1.00  0.00    -0.051 A 
HETATM    6  C5  UNL     1      -1.290  -2.574  -0.871  1.00  0.00     0.008 A 
HETATM    7  C6  UNL     1      -2.213  -2.033   0.025  1.00  0.00     0.013 A 
HETATM    8  C7  UNL     1      -2.107  -0.697   0.432  1.00  0.00    -0.025 A 
HETATM    9  C15 UNL     1      -1.052   0.091  -0.050  1.00  0.00     0.020 A 
HETATM   10  C16 UNL     1      -0.128  -0.438  -0.965  1.00  0.00    -0.049 A 
HETATM   11  C17 UNL     1       1.040   0.402  -1.429  1.00  0.00     0.082 C 
HETATM   12  C18 UNL     1       2.360  -0.016  -0.746  1.00  0.00     0.297 C 
ENDROOT
BRANCH   8  13
HETATM   13  C8  UNL     1      -3.071  -0.141   1.404  1.00  0.00    -0.011 A 
HETATM   14  C9  UNL     1      -3.052  -0.646   2.715  1.00  0.00     0.013 A 
HETATM   15  C10 UNL     1      -3.910  -0.133   3.687  1.00  0.00     0.001 A 
HETATM   16  C11 UNL     1      -4.795   0.893   3.364  1.00  0.00     0.001 A 
HETATM   17  C12 UNL     1      -4.839   1.399   2.063  1.00  0.00     0.017 A 
HETATM   18  C13 UNL     1      -4.001   0.877   1.057  1.00  0.00     0.059 A 
BRANCH  18  19
HETATM   19  C14 UNL     1      -4.090   1.439  -0.350  1.00  0.00     0.418 C 
HETATM   20  F1  UNL     1      -3.060   2.336  -0.556  1.00  0.00    -0.166 F 
HETATM   21  F2  UNL     1      -5.291   2.099  -0.551  1.00  0.00    -0.166 F 
HETATM   22  F3  UNL     1      -4.008   0.425  -1.287  1.00  0.00    -0.166 F 
ENDBRANCH  18  19
ENDBRANCH   8  13
BRANCH  12  23
HETATM   23  N1  UNL     1       3.498   0.511  -1.530  1.00  0.00     0.114 N 
HETATM   24  C19 UNL     1       3.833   1.933  -1.289  1.00  0.00     0.258 A 
HETATM   25  C20 UNL     1       3.727   2.534   0.111  1.00  0.00     0.040 A 
HETATM   26  C22 UNL     1       4.717   0.841  -0.754  1.00  0.00     0.258 A 
HETATM   27  C21 UNL     1       4.617   1.449   0.644  1.00  0.00     0.040 A 
ENDBRANCH  12  23
TORSDOF 3
