REMARK  4 active torsions:
REMARK  status: ('A' for Active; 'I' for Inactive)
REMARK    1  A    between atoms: C7_8  and  N1_9 
REMARK       I    between atoms: N1_9  and  C8_10 
REMARK    2  A    between atoms: C8_10  and  C9_12 
REMARK    3  A    between atoms: C14_18  and  C15_19 
REMARK    4  A    between atoms: C15_19  and  C16_20 
ROOT
HETATM    1  N1  UNL     1       0.787   0.624   0.471  1.00  0.00    -0.323 N 
HETATM    2  C8  UNL     1       1.722  -0.079  -0.362  1.00  0.00     0.256 C 
HETATM    3  O2  UNL     1       1.327  -1.000  -1.127  1.00  0.00    -0.267 OA
HETATM    4  H7  UNL     1       1.171   1.179   1.271  1.00  0.00     0.169 HD
ENDROOT
BRANCH   2   5
HETATM    5  C9  UNL     1       3.159   0.268  -0.309  1.00  0.00     0.042 A 
HETATM    6  C10 UNL     1       3.512   1.625  -0.397  1.00  0.00     0.018 A 
HETATM    7  C11 UNL     1       4.848   2.018  -0.346  1.00  0.00     0.004 A 
HETATM    8  C12 UNL     1       5.851   1.064  -0.195  1.00  0.00     0.043 A 
HETATM    9  C13 UNL     1       5.525  -0.290  -0.089  1.00  0.00     0.124 A 
HETATM   10  F1  UNL     1       6.529  -1.186   0.088  1.00  0.00    -0.206 F 
HETATM   11  C14 UNL     1       4.179  -0.711  -0.149  1.00  0.00     0.003 A 
BRANCH  11  12
HETATM   12  C15 UNL     1       3.855  -2.177   0.055  1.00  0.00     0.126 C 
BRANCH  12  13
HETATM   13  C16 UNL     1       3.234  -2.395   1.398  1.00  0.00     0.169 A 
HETATM   14  N2  UNL     1       3.896  -2.280   2.567  1.00  0.00    -0.141 NA
HETATM   15  N3  UNL     1       2.982  -2.509   3.495  1.00  0.00     0.021 NA
HETATM   16  N4  UNL     1       1.820  -2.747   2.911  1.00  0.00    -0.200 N 
HETATM   17  N5  UNL     1       1.934  -2.683   1.596  1.00  0.00    -0.144 NA
HETATM   18  H13 UNL     1       0.932  -2.955   3.419  1.00  0.00     0.208 HD
ENDBRANCH  12  13
ENDBRANCH  11  12
ENDBRANCH   2   5
BRANCH   1  19
HETATM   19  C7  UNL     1      -0.639   0.470   0.382  1.00  0.00     0.035 A 
HETATM   20  C6  UNL     1      -1.408   0.514   1.551  1.00  0.00     0.030 A 
HETATM   21  C5  UNL     1      -2.797   0.388   1.489  1.00  0.00     0.010 A 
HETATM   22  C4  UNL     1      -3.444   0.218   0.255  1.00  0.00    -0.050 A 
HETATM   23  C3  UNL     1      -4.950   0.132   0.204  1.00  0.00     0.048 C 
HETATM   24  C18 UNL     1      -2.681   0.199  -0.931  1.00  0.00    -0.032 A 
HETATM   25  C2  UNL     1      -5.551   1.410  -0.389  1.00  0.00     0.107 C 
HETATM   26  C1  UNL     1      -5.398   1.533  -1.886  1.00  0.00     0.218 C 
HETATM   27  O1  UNL     1      -6.343   2.046  -2.543  1.00  0.00    -0.274 OA
HETATM   28  N6  UNL     1      -4.173   1.224  -2.570  1.00  0.00    -0.357 N 
HETATM   29  C19 UNL     1      -3.352   0.054  -2.270  1.00  0.00     0.161 C 
HETATM   30  H17 UNL     1      -3.990   1.716  -3.474  1.00  0.00     0.162 HD
HETATM   31  C17 UNL     1      -1.283   0.335  -0.859  1.00  0.00     0.038 A 
ENDBRANCH   1  19
TORSDOF 4
