REMARK  4 active torsions:
REMARK  status: ('A' for Active; 'I' for Inactive)
REMARK    1  A    between atoms: C2_2  and  C3_4 
REMARK    2  A    between atoms: C9_10  and  N1_11 
REMARK       I    between atoms: N1_11  and  C10_12 
REMARK    3  A    between atoms: C10_12  and  C11_14 
REMARK    4  A    between atoms: C11_14  and  N2_15 
ROOT
HETATM    1  C11 UNL     1       0.409   0.130   1.617  1.00  0.00     0.221 C 
ENDROOT
BRANCH   1   2
HETATM    2  C10 UNL     1       1.651   0.560   0.887  1.00  0.00     0.239 C 
HETATM    3  N1  UNL     1       1.950   0.069  -0.430  1.00  0.00    -0.324 N 
HETATM    4  H10 UNL     1       1.220  -0.439  -0.976  1.00  0.00     0.169 HD
HETATM    5  O2  UNL     1       2.465   1.326   1.471  1.00  0.00    -0.271 OA
BRANCH   3   6
HETATM    6  C9  UNL     1       3.177   0.399  -1.098  1.00  0.00     0.054 A 
HETATM    7  C3  UNL     1       4.416  -0.107  -0.626  1.00  0.00     0.036 A 
HETATM    8  C4  UNL     1       5.602   0.285  -1.272  1.00  0.00     0.017 A 
HETATM    9  C5  UNL     1       5.565   1.144  -2.369  1.00  0.00     0.002 A 
HETATM   10  C6  UNL     1       4.347   1.624  -2.844  1.00  0.00     0.009 A 
HETATM   11  C7  UNL     1       3.147   1.255  -2.221  1.00  0.00    -0.034 A 
HETATM   12  C8  UNL     1       1.845   1.820  -2.720  1.00  0.00     0.050 C 
BRANCH   7  13
HETATM   13  C2  UNL     1       4.483  -1.070   0.505  1.00  0.00     0.158 C 
HETATM   14  C1  UNL     1       5.684  -1.145   1.398  1.00  0.00     0.097 C 
HETATM   15  O1  UNL     1       3.537  -1.881   0.701  1.00  0.00    -0.293 OA
ENDBRANCH   7  13
ENDBRANCH   3   6
ENDBRANCH   1   2
BRANCH   1  16
HETATM   16  N2  UNL     1      -0.698  -0.138   0.666  1.00  0.00    -0.390 N 
HETATM   17  C12 UNL     1      -0.955  -1.579   0.439  1.00  0.00     0.138 C 
HETATM   18  C13 UNL     1      -1.921  -2.181   1.468  1.00  0.00     0.142 C 
HETATM   19  N3  UNL     1      -3.277  -1.621   1.387  1.00  0.00    -0.383 N 
HETATM   20  C14 UNL     1      -4.258  -2.059   2.382  1.00  0.00     0.150 C 
HETATM   21  C15 UNL     1      -3.720  -0.898   0.221  1.00  0.00     0.038 A 
HETATM   22  C16 UNL     1      -4.819  -1.383  -0.508  1.00  0.00     0.030 A 
HETATM   23  C20 UNL     1      -3.025   0.265  -0.217  1.00  0.00    -0.004 A 
HETATM   24  C17 UNL     1      -5.237  -0.745  -1.673  1.00  0.00     0.002 A 
HETATM   25  C18 UNL     1      -4.559   0.380  -2.129  1.00  0.00     0.001 A 
HETATM   26  C19 UNL     1      -3.468   0.882  -1.417  1.00  0.00     0.012 A 
HETATM   27  C21 UNL     1      -1.846   0.829   0.627  1.00  0.00     0.050 C 
HETATM   28  C22 UNL     1      -2.387   1.165   2.051  1.00  0.00     0.043 C 
HETATM   29  C23 UNL     1      -1.303   2.151   0.028  1.00  0.00     0.043 C 
ENDBRANCH   1  16
TORSDOF 4
