REMARK  2 active torsions:
REMARK  status: ('A' for Active; 'I' for Inactive)
REMARK       I    between atoms: C1_2  and  N1_3 
REMARK       I    between atoms: C1_2  and  N2_14 
REMARK    1  A    between atoms: N1_3  and  C2_4 
REMARK    2  A    between atoms: C2_4  and  C3_5 
ROOT
HETATM    1  O1  UNL     1      -1.012   1.375   0.934  1.00  0.00    -0.247 OA
HETATM    2  C1  UNL     1      -0.868   0.120   0.981  1.00  0.00     0.319 C 
HETATM    3  N1  UNL     1      -2.023  -0.722   0.825  1.00  0.00    -0.330 N 
HETATM    4  N2  UNL     1       0.446  -0.453   1.221  1.00  0.00    -0.332 N 
HETATM    5  C11 UNL     1       0.682  -1.891   0.947  1.00  0.00     0.129 C 
HETATM    6  C12 UNL     1       2.164  -2.300   0.971  1.00  0.00     0.050 C 
HETATM    7  C13 UNL     1       3.015  -1.631  -0.120  1.00  0.00     0.274 C 
HETATM    8  N3  UNL     1       2.500  -0.302  -0.531  1.00  0.00     0.096 N 
HETATM    9  C14 UNL     1       3.106   0.172  -1.797  1.00  0.00     0.288 C 
HETATM   10  C15 UNL     1       4.617   0.427  -1.697  1.00  0.00     0.170 C 
HETATM   11  S1  UNL     1       5.011   1.478  -0.314  1.00  0.00     0.148 S 
HETATM   12  O2  UNL     1       4.840   2.927  -0.682  1.00  0.00    -0.228 OA
HETATM   13  O3  UNL     1       6.428   1.243   0.098  1.00  0.00    -0.228 OA
HETATM   14  C16 UNL     1       3.936   1.052   1.038  1.00  0.00     0.177 C 
HETATM   15  C17 UNL     1       2.519   0.750   0.521  1.00  0.00     0.254 C 
HETATM   16  C18 UNL     1       1.544   0.423   1.678  1.00  0.00     0.164 C 
HETATM   17  H1  UNL     1      -1.933  -1.765   0.821  1.00  0.00     0.165 HD
ENDROOT
BRANCH   3  18
HETATM   18  C2  UNL     1      -3.378  -0.171   0.761  1.00  0.00     0.062 A 
HETATM   19  C9  UNL     1      -4.370  -0.845   1.703  1.00  0.00     0.039 A 
HETATM   20  C10 UNL     1      -3.854   0.558   2.009  1.00  0.00     0.039 A 
BRANCH  18  21
HETATM   21  C3  UNL     1      -3.892   0.272  -0.584  1.00  0.00    -0.030 A 
HETATM   22  C4  UNL     1      -4.474  -0.657  -1.459  1.00  0.00     0.011 A 
HETATM   23  C5  UNL     1      -4.853  -0.264  -2.752  1.00  0.00     0.024 A 
HETATM   24  C6  UNL     1      -4.655   1.055  -3.165  1.00  0.00     0.034 A 
HETATM   25 CL1  UNL     1      -5.105   1.540  -4.799  1.00  0.00    -0.084 Cl
HETATM   26  C7  UNL     1      -4.085   1.984  -2.283  1.00  0.00     0.024 A 
HETATM   27  C8  UNL     1      -3.704   1.598  -1.006  1.00  0.00     0.011 A 
ENDBRANCH  18  21
ENDBRANCH   3  18
TORSDOF 2
