REMARK  2 active torsions:
REMARK  status: ('A' for Active; 'I' for Inactive)
REMARK    1  A    between atoms: C3_4  and  C4_5 
REMARK    2  A    between atoms: C8_9  and  C9_10 
ROOT
HETATM    1  O1  UNL     1      -1.031  -1.488   2.470  1.00  0.00    -0.292 OA
HETATM    2  C1  UNL     1      -1.332  -0.699   1.533  1.00  0.00     0.162 C 
HETATM    3  C2  UNL     1      -0.826   0.719   1.631  1.00  0.00     0.114 C 
HETATM    4  C3  UNL     1      -0.329   1.347   0.302  1.00  0.00     0.122 C 
HETATM    5  N1  UNL     1      -1.423   1.719  -0.607  1.00  0.00    -0.380 N 
HETATM    6  C16 UNL     1      -2.750   1.950  -0.127  1.00  0.00     0.039 A 
HETATM    7  C17 UNL     1      -3.190   3.262   0.094  1.00  0.00     0.030 A 
HETATM    8  C18 UNL     1      -4.461   3.496   0.626  1.00  0.00     0.002 A 
HETATM    9  C19 UNL     1      -5.299   2.422   0.932  1.00  0.00     0.001 A 
HETATM   10  C20 UNL     1      -4.873   1.112   0.698  1.00  0.00     0.014 A 
HETATM   11  C21 UNL     1      -3.594   0.865   0.174  1.00  0.00     0.001 A 
HETATM   12  C22 UNL     1      -3.213  -0.512  -0.207  1.00  0.00    -0.010 A 
HETATM   13  C23 UNL     1      -3.953  -1.126  -1.234  1.00  0.00     0.013 A 
HETATM   14  C24 UNL     1      -3.655  -2.421  -1.655  1.00  0.00     0.001 A 
HETATM   15  C25 UNL     1      -2.619  -3.127  -1.051  1.00  0.00     0.001 A 
HETATM   16  C26 UNL     1      -1.879  -2.541  -0.024  1.00  0.00     0.016 A 
HETATM   17  C27 UNL     1      -2.151  -1.229   0.410  1.00  0.00     0.021 A 
HETATM   18  H13 UNL     1      -1.154   2.198  -1.496  1.00  0.00     0.160 HD
ENDROOT
BRANCH   4  19
HETATM   19  C4  UNL     1       0.699   0.466  -0.387  1.00  0.00    -0.034 A 
HETATM   20  C5  UNL     1       0.364  -0.346  -1.487  1.00  0.00     0.009 A 
HETATM   21  C6  UNL     1       1.321  -1.179  -2.069  1.00  0.00     0.002 A 
HETATM   22  C7  UNL     1       2.621  -1.218  -1.562  1.00  0.00     0.012 A 
HETATM   23  C8  UNL     1       2.979  -0.423  -0.459  1.00  0.00    -0.025 A 
HETATM   24  C15 UNL     1       2.009   0.414   0.121  1.00  0.00     0.021 A 
BRANCH  23  25
HETATM   25  C9  UNL     1       4.358  -0.474   0.089  1.00  0.00    -0.026 A 
HETATM   26  C10 UNL     1       5.470  -0.528  -0.773  1.00  0.00     0.012 A 
HETATM   27  C11 UNL     1       6.767  -0.575  -0.254  1.00  0.00     0.001 A 
HETATM   28  C12 UNL     1       6.970  -0.570   1.128  1.00  0.00     0.000 A 
HETATM   29  C13 UNL     1       5.875  -0.518   1.994  1.00  0.00     0.001 A 
HETATM   30  C14 UNL     1       4.576  -0.470   1.480  1.00  0.00     0.012 A 
ENDBRANCH  23  25
ENDBRANCH   4  19
TORSDOF 2
