REMARK  3 active torsions:
REMARK  status: ('A' for Active; 'I' for Inactive)
REMARK    1  A    between atoms: C5_7  and  N1_8 
REMARK       I    between atoms: N1_8  and  C6_9 
REMARK    2  A    between atoms: C6_9  and  C7_11 
REMARK    3  A    between atoms: C12_16  and  C13_17 
ROOT
HETATM    1  N1  UNL     1       0.354  -2.231  -0.556  1.00  0.00    -0.323 N 
HETATM    2  C6  UNL     1      -0.006  -2.299  -1.943  1.00  0.00     0.257 C 
HETATM    3  O3  UNL     1       0.878  -2.147  -2.829  1.00  0.00    -0.267 OA
HETATM    4  H4  UNL     1      -0.097  -2.927   0.081  1.00  0.00     0.169 HD
ENDROOT
BRANCH   2   5
HETATM    5  C7  UNL     1      -1.397  -2.631  -2.338  1.00  0.00     0.043 A 
HETATM    6  C8  UNL     1      -1.607  -3.467  -3.449  1.00  0.00     0.018 A 
HETATM    7  C9  UNL     1      -2.897  -3.860  -3.811  1.00  0.00     0.001 A 
HETATM    8  C10 UNL     1      -3.996  -3.421  -3.072  1.00  0.00     0.001 A 
HETATM    9  C11 UNL     1      -3.811  -2.573  -1.979  1.00  0.00     0.013 A 
HETATM   10  C12 UNL     1      -2.522  -2.157  -1.610  1.00  0.00    -0.010 A 
BRANCH  10  11
HETATM   11  C13 UNL     1      -2.382  -1.185  -0.505  1.00  0.00    -0.024 A 
HETATM   12  C14 UNL     1      -2.716  -1.555   0.806  1.00  0.00     0.013 A 
HETATM   13  C15 UNL     1      -2.487  -0.676   1.868  1.00  0.00     0.013 A 
HETATM   14  C16 UNL     1      -1.926   0.588   1.630  1.00  0.00    -0.026 A 
HETATM   15  C17 UNL     1      -1.648   1.460   2.694  1.00  0.00     0.012 A 
HETATM   16  C21 UNL     1      -1.623   0.982   0.304  1.00  0.00    -0.025 A 
HETATM   17  C18 UNL     1      -1.073   2.709   2.445  1.00  0.00     0.001 A 
HETATM   18  C19 UNL     1      -0.780   3.100   1.136  1.00  0.00     0.001 A 
HETATM   19  C20 UNL     1      -1.056   2.243   0.067  1.00  0.00     0.012 A 
HETATM   20  C22 UNL     1      -1.862   0.095  -0.756  1.00  0.00     0.024 A 
ENDBRANCH  10  11
ENDBRANCH   2   5
BRANCH   1  21
HETATM   21  C5  UNL     1       1.105  -1.157   0.042  1.00  0.00     0.037 A 
HETATM   22  C4  UNL     1       1.527  -0.036  -0.699  1.00  0.00     0.066 A 
HETATM   23  C3  UNL     1       2.166   1.035  -0.065  1.00  0.00     0.079 A 
HETATM   24  O2  UNL     1       2.581   2.131  -0.822  1.00  0.00    -0.341 OA
HETATM   25  C25 UNL     1       2.365   1.017   1.321  1.00  0.00    -0.007 A 
HETATM   26  C2  UNL     1       3.958   2.456  -0.984  1.00  0.00     0.278 C 
HETATM   27  C1  UNL     1       4.592   3.008   0.265  1.00  0.00     0.242 C 
HETATM   28  O1  UNL     1       5.531   3.839   0.142  1.00  0.00    -0.271 OA
HETATM   29  N2  UNL     1       4.274   2.515   1.574  1.00  0.00    -0.355 N 
HETATM   30  C26 UNL     1       2.909   2.236   2.008  1.00  0.00     0.164 C 
HETATM   31  H20 UNL     1       5.005   2.600   2.316  1.00  0.00     0.162 HD
HETATM   32  C24 UNL     1       1.956  -0.100   2.062  1.00  0.00     0.014 A 
HETATM   33  C23 UNL     1       1.337  -1.179   1.426  1.00  0.00     0.030 A 
ENDBRANCH   1  21
TORSDOF 3
