REMARK  2 active torsions:
REMARK  status: ('A' for Active; 'I' for Inactive)
REMARK    1  A    between atoms: C8_10  and  C9_11 
REMARK       I    between atoms: C9_11  and  N2_13 
REMARK    2  A    between atoms: N3_16  and  C12_17 
ROOT
HETATM    1  C9  UNL     1       2.724  -1.474   0.892  1.00  0.00     0.242 C 
HETATM    2  O2  UNL     1       2.644  -2.380   1.765  1.00  0.00    -0.272 OA
HETATM    3  N2  UNL     1       1.741  -1.437  -0.169  1.00  0.00    -0.315 N 
HETATM    4  C10 UNL     1       1.295  -0.154  -0.751  1.00  0.00     0.152 C 
HETATM    5  C11 UNL     1       0.029  -0.261  -1.617  1.00  0.00     0.145 C 
HETATM    6  N3  UNL     1      -1.139  -0.661  -0.811  1.00  0.00    -0.360 N 
HETATM    7  C21 UNL     1      -1.117  -1.886   0.005  1.00  0.00     0.165 C 
HETATM    8  C22 UNL     1      -0.193  -2.932  -0.568  1.00  0.00    -0.013 A 
HETATM    9  C23 UNL     1      -0.704  -4.152  -1.042  1.00  0.00     0.011 A 
HETATM   10  C24 UNL     1       0.158  -5.129  -1.548  1.00  0.00     0.001 A 
HETATM   11  C25 UNL     1       1.535  -4.897  -1.586  1.00  0.00     0.002 A 
HETATM   12  C26 UNL     1       2.053  -3.685  -1.125  1.00  0.00     0.030 A 
HETATM   13  C27 UNL     1       1.196  -2.693  -0.622  1.00  0.00     0.045 A 
ENDROOT
BRANCH   1  14
HETATM   14  C8  UNL     1       3.870  -0.494   1.000  1.00  0.00     0.205 A 
HETATM   15  C1  UNL     1       4.552  -0.229  -0.313  1.00  0.00     0.240 A 
HETATM   16  O1  UNL     1       5.085  -1.116  -1.030  1.00  0.00    -0.272 OA
HETATM   17  N1  UNL     1       4.558   1.152  -0.660  1.00  0.00    -0.326 N 
HETATM   18  C2  UNL     1       3.857   1.792   0.392  1.00  0.00     0.042 A 
HETATM   19  H1  UNL     1       4.960   1.591  -1.518  1.00  0.00     0.169 HD
HETATM   20  C3  UNL     1       3.573   3.153   0.490  1.00  0.00     0.030 A 
HETATM   21  C7  UNL     1       3.435   0.895   1.354  1.00  0.00    -0.009 A 
HETATM   22  C4  UNL     1       2.850   3.604   1.606  1.00  0.00     0.002 A 
HETATM   23  C5  UNL     1       2.427   2.694   2.596  1.00  0.00     0.001 A 
HETATM   24  C6  UNL     1       2.722   1.326   2.475  1.00  0.00     0.011 A 
ENDBRANCH   1  14
BRANCH   6  25
HETATM   25  C12 UNL     1      -2.252   0.241  -0.653  1.00  0.00     0.126 A 
HETATM   26  C13 UNL     1      -2.784   0.934  -1.754  1.00  0.00     0.051 A 
HETATM   27  C14 UNL     1      -3.873   1.790  -1.575  1.00  0.00     0.017 A 
HETATM   28  C15 UNL     1      -4.436   1.945  -0.303  1.00  0.00    -0.007 A 
HETATM   29  C16 UNL     1      -5.531   2.795  -0.088  1.00  0.00     0.014 A 
HETATM   30  C20 UNL     1      -3.886   1.223   0.779  1.00  0.00     0.069 A 
HETATM   31  C17 UNL     1      -6.074   2.923   1.195  1.00  0.00     0.001 A 
HETATM   32  C18 UNL     1      -5.528   2.206   2.265  1.00  0.00     0.002 A 
HETATM   33  C19 UNL     1      -4.436   1.357   2.059  1.00  0.00     0.032 A 
HETATM   34  N4  UNL     1      -2.824   0.398   0.574  1.00  0.00    -0.231 NA
ENDBRANCH   6  25
TORSDOF 2
