REMARK  2 active torsions:
REMARK  status: ('A' for Active; 'I' for Inactive)
REMARK    1  A    between atoms: C1_2  and  C2_3 
REMARK    2  A    between atoms: C1_2  and  C16_17 
ROOT
HETATM    1  C16 UNL     1       0.360  -0.561  -0.974  1.00  0.00     0.016 A 
HETATM    2  C17 UNL     1      -0.914  -1.139  -1.101  1.00  0.00     0.028 A 
HETATM    3  C18 UNL     1      -2.002  -0.382  -1.555  1.00  0.00    -0.018 A 
HETATM    4  C19 UNL     1      -1.829   0.977  -1.893  1.00  0.00    -0.047 A 
HETATM    5  C20 UNL     1      -0.550   1.545  -1.783  1.00  0.00     0.009 A 
HETATM    6  C21 UNL     1       0.532   0.786  -1.331  1.00  0.00     0.016 A 
HETATM    7  C22 UNL     1      -2.989   1.836  -2.365  1.00  0.00     0.047 C 
HETATM    8  C23 UNL     1      -4.130   1.992  -1.337  1.00  0.00     0.088 C 
HETATM    9  C24 UNL     1      -3.631   2.157   0.076  1.00  0.00     0.160 C 
HETATM   10  O2  UNL     1      -3.341   3.336   0.421  1.00  0.00    -0.292 OA
HETATM   11  C25 UNL     1      -3.415   1.041   1.068  1.00  0.00     0.021 A 
HETATM   12  C26 UNL     1      -2.908   1.412   2.337  1.00  0.00     0.016 A 
HETATM   13  C27 UNL     1      -2.688   0.472   3.342  1.00  0.00     0.001 A 
HETATM   14  C28 UNL     1      -2.969  -0.869   3.116  1.00  0.00     0.001 A 
HETATM   15  C29 UNL     1      -3.464  -1.276   1.883  1.00  0.00     0.013 A 
HETATM   16  C30 UNL     1      -3.690  -0.350   0.847  1.00  0.00    -0.011 A 
HETATM   17  C31 UNL     1      -4.171  -0.927  -0.431  1.00  0.00    -0.014 A 
HETATM   18  C32 UNL     1      -5.455  -1.496  -0.485  1.00  0.00     0.013 A 
HETATM   19  C33 UNL     1      -5.913  -2.098  -1.659  1.00  0.00     0.001 A 
HETATM   20  C34 UNL     1      -5.091  -2.151  -2.787  1.00  0.00     0.001 A 
HETATM   21  C35 UNL     1      -3.808  -1.601  -2.744  1.00  0.00     0.013 A 
HETATM   22  C36 UNL     1      -3.339  -0.995  -1.569  1.00  0.00    -0.014 A 
ENDROOT
BRANCH   1  23
HETATM   23  C1  UNL     1       1.498  -1.370  -0.467  1.00  0.00     0.193 C 
HETATM   24  O1  UNL     1       1.423  -2.629  -0.482  1.00  0.00    -0.287 OA
BRANCH  23  25
HETATM   25  C2  UNL     1       2.708  -0.734   0.107  1.00  0.00     0.027 A 
HETATM   26  C3  UNL     1       2.534   0.139   1.183  1.00  0.00     0.028 A 
HETATM   27  C4  UNL     1       3.624   0.745   1.808  1.00  0.00    -0.024 A 
HETATM   28  C5  UNL     1       3.396   1.620   2.883  1.00  0.00     0.012 A 
HETATM   29  C9  UNL     1       4.948   0.477   1.366  1.00  0.00    -0.015 A 
HETATM   30  C6  UNL     1       4.463   2.237   3.530  1.00  0.00     0.001 A 
HETATM   31  C7  UNL     1       5.767   1.988   3.112  1.00  0.00     0.001 A 
HETATM   32  C8  UNL     1       6.014   1.121   2.045  1.00  0.00     0.013 A 
HETATM   33  C10 UNL     1       5.147  -0.413   0.265  1.00  0.00    -0.014 A 
HETATM   34  C11 UNL     1       6.436  -0.728  -0.234  1.00  0.00     0.013 A 
HETATM   35  C15 UNL     1       4.013  -1.009  -0.370  1.00  0.00    -0.011 A 
HETATM   36  C12 UNL     1       6.598  -1.577  -1.327  1.00  0.00     0.001 A 
HETATM   37  C13 UNL     1       5.491  -2.130  -1.956  1.00  0.00     0.001 A 
HETATM   38  C14 UNL     1       4.210  -1.848  -1.490  1.00  0.00     0.013 A 
ENDBRANCH  23  25
ENDBRANCH   1  23
TORSDOF 2
