REMARK  3 active torsions:
REMARK  status: ('A' for Active; 'I' for Inactive)
REMARK    1  A    between atoms: C2_2  and  C3_3 
REMARK    2  A    between atoms: C6_8  and  C7_9 
REMARK       I    between atoms: C7_9  and  N3_11 
REMARK    3  A    between atoms: C12_16  and  O2_17 
ROOT
HETATM    1  C7  UNL     1       1.024   1.157   0.532  1.00  0.00     0.275 C 
HETATM    2  O1  UNL     1       1.335   2.373   0.652  1.00  0.00    -0.266 OA
HETATM    3  N3  UNL     1      -0.275   0.717   0.980  1.00  0.00    -0.331 N 
HETATM    4  C8  UNL     1      -0.671  -0.657   1.239  1.00  0.00     0.122 C 
HETATM    5  C9  UNL     1      -1.721  -0.565   2.361  1.00  0.00     0.032 C 
HETATM    6  C10 UNL     1      -1.971   0.928   2.569  1.00  0.00     0.030 C 
HETATM    7  C11 UNL     1      -1.367   1.606   1.336  1.00  0.00     0.117 C 
HETATM    8  C12 UNL     1      -2.355   1.747   0.123  1.00  0.00     0.148 C 
HETATM    9  C14 UNL     1      -1.906   0.975  -1.140  1.00  0.00     0.073 C 
HETATM   10  C15 UNL     1      -1.947  -0.547  -1.029  1.00  0.00    -0.047 A 
HETATM   11  C16 UNL     1      -2.561  -1.255  -2.081  1.00  0.00     0.008 A 
HETATM   12  C17 UNL     1      -2.548  -2.649  -2.116  1.00  0.00     0.001 A 
HETATM   13  C18 UNL     1      -1.913  -3.367  -1.108  1.00  0.00     0.001 A 
HETATM   14  C19 UNL     1      -1.293  -2.695  -0.056  1.00  0.00     0.010 A 
HETATM   15  C20 UNL     1      -1.286  -1.289   0.001  1.00  0.00    -0.029 A 
ENDROOT
BRANCH   1  16
HETATM   16  C6  UNL     1       1.988   0.226  -0.096  1.00  0.00     0.149 A 
HETATM   17  C3  UNL     1       3.353   0.419  -0.268  1.00  0.00     0.044 A 
HETATM   18  N1  UNL     1       3.842  -0.636  -0.947  1.00  0.00    -0.346 N 
HETATM   19  C4  UNL     1       2.783  -1.438  -1.163  1.00  0.00     0.101 A 
HETATM   20  H6  UNL     1       4.826  -0.811  -1.248  1.00  0.00     0.167 HD
HETATM   21  C5  UNL     1       2.875  -2.763  -1.844  1.00  0.00     0.091 C 
HETATM   22  N2  UNL     1       1.635  -0.949  -0.655  1.00  0.00    -0.228 NA
BRANCH  17  23
HETATM   23  C2  UNL     1       4.154   1.620   0.169  1.00  0.00     0.055 C 
HETATM   24  C1  UNL     1       5.660   1.366   0.185  1.00  0.00     0.011 C 
ENDBRANCH  17  23
ENDBRANCH   1  16
BRANCH   8  25
HETATM   25  O2  UNL     1      -3.675   1.332   0.448  1.00  0.00    -0.388 OA
HETATM   26  C13 UNL     1      -4.509   2.445   0.684  1.00  0.00     0.202 C 
ENDBRANCH   8  25
TORSDOF 3
