REMARK  4 active torsions:
REMARK  status: ('A' for Active; 'I' for Inactive)
REMARK    1  A    between atoms: C4_4  and  C5_5 
REMARK       I    between atoms: C5_5  and  N1_7 
REMARK    2  A    between atoms: C8_10  and  O2_11 
REMARK    3  A    between atoms: N2_14  and  C11_15 
REMARK    4  A    between atoms: C13_18  and  O3_19 
ROOT
HETATM    1  C5  UNL     1       0.719  -1.475  -0.976  1.00  0.00     0.255 C 
HETATM    2  O1  UNL     1       0.716  -2.418  -1.815  1.00  0.00    -0.267 OA
HETATM    3  N1  UNL     1      -0.428  -1.300  -0.124  1.00  0.00    -0.324 N 
HETATM    4  C6  UNL     1      -0.803  -2.411   0.778  1.00  0.00     0.114 C 
HETATM    5  C7  UNL     1       0.113  -2.387   2.011  1.00  0.00     0.035 C 
HETATM    6  C8  UNL     1      -2.302  -2.381   1.200  1.00  0.00     0.142 C 
HETATM    7  C9  UNL     1      -3.277  -2.490   0.002  1.00  0.00     0.054 C 
HETATM    8  C10 UNL     1      -2.992  -1.510  -1.143  1.00  0.00     0.146 C 
HETATM    9  N2  UNL     1      -2.550  -0.207  -0.627  1.00  0.00    -0.198 N 
HETATM   10  C15 UNL     1      -1.164  -0.023  -0.164  1.00  0.00     0.271 C 
ENDROOT
BRANCH   1  11
HETATM   11  C4  UNL     1       1.915  -0.600  -0.853  1.00  0.00     0.033 A 
HETATM   12  C3  UNL     1       2.934  -0.658  -1.818  1.00  0.00     0.024 A 
HETATM   13  C2  UNL     1       4.110   0.102  -1.687  1.00  0.00    -0.050 A 
HETATM   14  C1  UNL     1       5.182  -0.032  -2.738  1.00  0.00     0.049 C 
HETATM   15  C22 UNL     1       4.274   0.940  -0.554  1.00  0.00    -0.020 A 
HETATM   16  C17 UNL     1       3.239   1.014   0.410  1.00  0.00    -0.025 A 
HETATM   17  C21 UNL     1       5.444   1.705  -0.355  1.00  0.00     0.013 A 
HETATM   18  C16 UNL     1       2.078   0.242   0.260  1.00  0.00     0.029 A 
HETATM   19  C18 UNL     1       3.389   1.838   1.534  1.00  0.00     0.012 A 
HETATM   20  C19 UNL     1       4.548   2.594   1.710  1.00  0.00     0.001 A 
HETATM   21  C20 UNL     1       5.572   2.525   0.769  1.00  0.00     0.001 A 
ENDBRANCH   1  11
BRANCH   6  22
HETATM   22  O2  UNL     1      -2.584  -3.409   2.119  1.00  0.00    -0.393 OA
HETATM   23  H10 UNL     1      -2.349  -4.275   1.686  1.00  0.00     0.210 HD
ENDBRANCH   6  22
BRANCH   9  24
HETATM   24  C11 UNL     1      -3.490   0.877  -0.477  1.00  0.00     0.725 A 
HETATM   25  N3  UNL     1      -3.043   2.142  -0.241  1.00  0.00    -0.072 NA
HETATM   26  C12 UNL     1      -3.911   3.174  -0.079  1.00  0.00     0.174 A 
HETATM   27  C13 UNL     1      -5.288   2.946  -0.157  1.00  0.00     0.101 A 
HETATM   28  C14 UNL     1      -5.730   1.645  -0.406  1.00  0.00     0.174 A 
HETATM   29  N4  UNL     1      -4.829   0.642  -0.556  1.00  0.00    -0.072 NA
BRANCH  27  30
HETATM   30  O3  UNL     1      -6.204   3.981   0.015  1.00  0.00    -0.358 OA
HETATM   31  H16 UNL     1      -5.901   4.923   0.248  1.00  0.00     0.217 HD
ENDBRANCH  27  30
ENDBRANCH   9  24
TORSDOF 4
