REMARK  3 active torsions:
REMARK  status: ('A' for Active; 'I' for Inactive)
REMARK       I    between atoms: C1_2  and  N1_3 
REMARK    1  A    between atoms: C1_2  and  C13_15 
REMARK    2  A    between atoms: N1_3  and  C2_4 
REMARK    3  A    between atoms: C2_4  and  C3_5 
ROOT
HETATM    1  C13 UNL     1      -0.138  -0.398   0.910  1.00  0.00     0.104 A 
HETATM    2  C14 UNL     1      -0.870  -0.350  -0.285  1.00  0.00     0.048 A 
HETATM    3  C15 UNL     1      -2.107  -0.996  -0.373  1.00  0.00    -0.011 A 
HETATM    4  C16 UNL     1      -2.602  -1.713   0.735  1.00  0.00     0.021 A 
HETATM    5  C17 UNL     1      -1.859  -1.700   1.930  1.00  0.00     0.253 A 
HETATM    6  O2  UNL     1      -2.292  -2.294   2.955  1.00  0.00    -0.268 OA
HETATM    7  N2  UNL     1      -0.663  -1.051   1.989  1.00  0.00    -0.319 N 
HETATM    8  C18 UNL     1      -3.903  -2.486   0.626  1.00  0.00     0.050 C 
HETATM    9  C19 UNL     1      -5.184  -1.642   0.818  1.00  0.00     0.044 C 
HETATM   10  C20 UNL     1      -5.005  -0.134   0.782  1.00  0.00    -0.047 A 
HETATM   11  C21 UNL     1      -5.331   0.615   1.928  1.00  0.00     0.008 A 
HETATM   12  C22 UNL     1      -5.269   2.010   1.909  1.00  0.00     0.001 A 
HETATM   13  C23 UNL     1      -4.887   2.678   0.747  1.00  0.00     0.001 A 
HETATM   14  C24 UNL     1      -4.550   1.953  -0.397  1.00  0.00     0.013 A 
HETATM   15  C25 UNL     1      -4.599   0.549  -0.393  1.00  0.00    -0.019 A 
HETATM   16  C26 UNL     1      -4.141  -0.170  -1.604  1.00  0.00    -0.014 A 
HETATM   17  C27 UNL     1      -4.881  -0.063  -2.792  1.00  0.00     0.013 A 
HETATM   18  C28 UNL     1      -4.411  -0.649  -3.970  1.00  0.00     0.001 A 
HETATM   19  C29 UNL     1      -3.193  -1.332  -3.976  1.00  0.00     0.001 A 
HETATM   20  C30 UNL     1      -2.442  -1.436  -2.803  1.00  0.00     0.013 A 
HETATM   21  C31 UNL     1      -2.908  -0.863  -1.611  1.00  0.00    -0.014 A 
HETATM   22  H12 UNL     1      -0.129  -1.076   2.888  1.00  0.00     0.169 HD
ENDROOT
BRANCH   1  23
HETATM   23  C1  UNL     1       1.177   0.278   1.021  1.00  0.00     0.268 C 
HETATM   24  O1  UNL     1       1.611   0.598   2.161  1.00  0.00    -0.266 OA
HETATM   25  N1  UNL     1       1.976   0.545  -0.144  1.00  0.00    -0.351 N 
HETATM   26  H1  UNL     1       1.740   0.082  -1.050  1.00  0.00     0.163 HD
BRANCH  25  27
HETATM   27  C2  UNL     1       3.231   1.295  -0.080  1.00  0.00     0.162 C 
BRANCH  27  28
HETATM   28  C3  UNL     1       4.446   0.412   0.170  1.00  0.00    -0.029 A 
HETATM   29  C4  UNL     1       4.304  -0.981   0.349  1.00  0.00     0.010 A 
HETATM   30  C5  UNL     1       5.413  -1.796   0.569  1.00  0.00     0.002 A 
HETATM   31  C6  UNL     1       6.690  -1.249   0.614  1.00  0.00     0.012 A 
HETATM   32  C7  UNL     1       6.874   0.129   0.442  1.00  0.00    -0.025 A 
HETATM   33  C8  UNL     1       8.169   0.670   0.488  1.00  0.00     0.012 A 
HETATM   34  C12 UNL     1       5.753   0.975   0.220  1.00  0.00    -0.018 A 
HETATM   35  C9  UNL     1       8.366   2.040   0.318  1.00  0.00     0.001 A 
HETATM   36  C10 UNL     1       7.276   2.882   0.102  1.00  0.00     0.001 A 
HETATM   37  C11 UNL     1       5.980   2.360   0.053  1.00  0.00     0.013 A 
ENDBRANCH  27  28
ENDBRANCH  25  27
ENDBRANCH   1  23
TORSDOF 3
