REMARK  2 active torsions:
REMARK  status: ('A' for Active; 'I' for Inactive)
REMARK       I    between atoms: C2_2  and  N1_4 
REMARK       I    between atoms: N2_7  and  C5_8 
REMARK    1  A    between atoms: C5_8  and  C6_10 
REMARK    2  A    between atoms: C6_10  and  C7_11 
ROOT
HETATM    1  C1  UNL     1      -1.747   3.527  -1.395  1.00  0.00     0.117 C 
HETATM    2  C2  UNL     1      -2.095   2.654  -0.226  1.00  0.00     0.216 C 
HETATM    3  O1  UNL     1      -2.259   3.203   0.898  1.00  0.00    -0.274 OA
HETATM    4  N1  UNL     1      -2.256   1.221  -0.355  1.00  0.00    -0.347 N 
HETATM    5  C3  UNL     1      -2.281   0.574  -1.676  1.00  0.00     0.146 C 
HETATM    6  C4  UNL     1      -0.909  -0.024  -2.004  1.00  0.00     0.152 C 
HETATM    7  N2  UNL     1      -0.371  -0.832  -0.899  1.00  0.00    -0.316 N 
HETATM    8  C5  UNL     1       1.051  -1.054  -0.831  1.00  0.00     0.226 C 
HETATM    9  O2  UNL     1       1.746  -0.971  -1.880  1.00  0.00    -0.273 OA
HETATM   10  C12 UNL     1      -1.261  -1.657  -0.123  1.00  0.00     0.045 A 
HETATM   11  C13 UNL     1      -2.270  -1.076   0.681  1.00  0.00    -0.013 A 
HETATM   12  C14 UNL     1      -3.138  -1.915   1.402  1.00  0.00     0.011 A 
HETATM   13  C15 UNL     1      -3.023  -3.304   1.311  1.00  0.00     0.001 A 
HETATM   14  C16 UNL     1      -2.033  -3.873   0.511  1.00  0.00     0.002 A 
HETATM   15  C17 UNL     1      -1.156  -3.055  -0.202  1.00  0.00     0.030 A 
HETATM   16  C18 UNL     1      -2.359   0.425   0.885  1.00  0.00     0.166 C 
ENDROOT
BRANCH   8  17
HETATM   17  C6  UNL     1       1.723  -1.397   0.477  1.00  0.00     0.128 C 
BRANCH  17  18
HETATM   18  C7  UNL     1       2.841  -0.404   0.872  1.00  0.00     0.096 A 
HETATM   19  C8  UNL     1       4.119  -0.548   0.003  1.00  0.00     0.035 A 
HETATM   20  C9  UNL     1       4.293   0.766  -0.779  1.00  0.00     0.105 A 
HETATM   21  C10 UNL     1       3.233   1.635  -0.230  1.00  0.00     0.219 A 
HETATM   22  O3  UNL     1       3.068   2.837  -0.567  1.00  0.00    -0.273 OA
HETATM   23  N3  UNL     1       2.409   0.978   0.711  1.00  0.00    -0.351 N 
HETATM   24  C11 UNL     1       1.348   1.626   1.474  1.00  0.00     0.153 C 
ENDBRANCH  17  18
ENDBRANCH   8  17
TORSDOF 2
