REMARK  6 active torsions:
REMARK  status: ('A' for Active; 'I' for Inactive)
REMARK       I    between atoms: C1_2  and  N1_3 
REMARK    1  A    between atoms: C1_2  and  C26_31 
REMARK       I    between atoms: N1_3  and  C2_4 
REMARK    2  A    between atoms: C2_4  and  C3_6 
REMARK    3  A    between atoms: C5_8  and  C25_30 
REMARK    4  A    between atoms: C6_9  and  C8_13 
REMARK    5  A    between atoms: C13_18  and  C14_19 
REMARK    6  A    between atoms: C19_24  and  C20_25 
ROOT
HETATM    1  C3  UNL     1      -1.939   2.662   0.236  1.00  0.00     0.104 A 
HETATM    2  C4  UNL     1      -2.240   1.358  -0.159  1.00  0.00     0.048 A 
HETATM    3  C5  UNL     1      -3.510   1.033  -0.675  1.00  0.00    -0.006 A 
HETATM    4  C6  UNL     1      -4.484   2.039  -0.767  1.00  0.00     0.054 A 
HETATM    5  C7  UNL     1      -4.149   3.344  -0.309  1.00  0.00     0.258 A 
HETATM    6  O3  UNL     1      -5.009   4.267  -0.310  1.00  0.00    -0.267 OA
HETATM    7  N2  UNL     1      -2.902   3.617   0.159  1.00  0.00    -0.318 N 
HETATM    8  H3  UNL     1      -2.692   4.589   0.482  1.00  0.00     0.169 HD
ENDROOT
BRANCH   1   9
HETATM    9  C2  UNL     1      -0.606   2.986   0.796  1.00  0.00     0.275 C 
HETATM   10  N1  UNL     1       0.530   2.155   0.509  1.00  0.00    -0.288 N 
HETATM   11  C1  UNL     1       1.652   2.023   1.404  1.00  0.00     0.258 C 
HETATM   12  H1  UNL     1       0.529   1.640  -0.401  1.00  0.00     0.172 HD
HETATM   13  O1  UNL     1       1.767   2.820   2.381  1.00  0.00    -0.267 OA
HETATM   14  O2  UNL     1      -0.467   4.013   1.515  1.00  0.00    -0.266 OA
BRANCH  11  15
HETATM   15  C26 UNL     1       2.684   0.964   1.216  1.00  0.00     0.033 A 
HETATM   16  C27 UNL     1       2.485  -0.120   0.341  1.00  0.00     0.018 A 
HETATM   17  C28 UNL     1       3.468  -1.099   0.185  1.00  0.00     0.014 A 
HETATM   18  C29 UNL     1       4.666  -1.033   0.908  1.00  0.00    -0.015 A 
HETATM   19  C30 UNL     1       4.870   0.034   1.809  1.00  0.00    -0.024 A 
HETATM   20  C45 UNL     1       5.652  -2.127   0.762  1.00  0.00    -0.014 A 
HETATM   21  C31 UNL     1       3.880   1.017   1.957  1.00  0.00     0.029 A 
HETATM   22  C32 UNL     1       6.069   0.113   2.666  1.00  0.00     0.013 C 
HETATM   23  C33 UNL     1       7.298   0.329   2.188  1.00  0.00     0.013 C 
HETATM   24  C34 UNL     1       7.583   0.498   0.752  1.00  0.00    -0.025 A 
HETATM   25  C35 UNL     1       8.110   1.723   0.317  1.00  0.00     0.012 A 
HETATM   26  C39 UNL     1       7.392  -0.549  -0.178  1.00  0.00    -0.015 A 
HETATM   27  C36 UNL     1       8.412   1.924  -1.030  1.00  0.00     0.001 A 
HETATM   28  C37 UNL     1       8.205   0.899  -1.954  1.00  0.00     0.001 A 
HETATM   29  C38 UNL     1       7.705  -0.333  -1.532  1.00  0.00     0.013 A 
HETATM   30  C40 UNL     1       6.950  -1.897   0.250  1.00  0.00    -0.014 A 
HETATM   31  C41 UNL     1       7.833  -2.979   0.097  1.00  0.00     0.013 A 
HETATM   32  C42 UNL     1       7.442  -4.271   0.455  1.00  0.00     0.001 A 
HETATM   33  C43 UNL     1       6.160  -4.497   0.955  1.00  0.00     0.001 A 
HETATM   34  C44 UNL     1       5.269  -3.435   1.105  1.00  0.00     0.013 A 
ENDBRANCH  11  15
ENDBRANCH   1   9
BRANCH   3  35
HETATM   35  C25 UNL     1      -3.791  -0.389  -0.985  1.00  0.00    -0.014 C 
HETATM   36  C20 UNL     1      -4.537  -1.103  -0.025  1.00  0.00    -0.014 C 
HETATM   37  C21 UNL     1      -3.844  -2.091   0.711  1.00  0.00     0.013 C 
HETATM   38  C22 UNL     1      -2.665  -2.641   0.201  1.00  0.00     0.001 C 
HETATM   39  C23 UNL     1      -2.161  -2.187  -1.018  1.00  0.00     0.001 C 
HETATM   40  C24 UNL     1      -2.736  -1.071  -1.627  1.00  0.00     0.013 C 
BRANCH  36  41
HETATM   41  C19 UNL     1      -5.994  -1.351  -0.272  1.00  0.00    -0.014 A 
HETATM   42  C14 UNL     1      -6.989  -0.337  -0.447  1.00  0.00    -0.014 A 
HETATM   43  C15 UNL     1      -8.306  -0.747  -0.783  1.00  0.00     0.013 A 
HETATM   44  C16 UNL     1      -8.651  -2.089  -0.896  1.00  0.00     0.001 A 
HETATM   45  C17 UNL     1      -7.695  -3.072  -0.709  1.00  0.00     0.001 A 
HETATM   46  C18 UNL     1      -6.385  -2.709  -0.422  1.00  0.00     0.013 A 
BRANCH  42  47
HETATM   47  C13 UNL     1      -6.750   1.141  -0.357  1.00  0.00    -0.014 C 
HETATM   48  C8  UNL     1      -5.857   1.755  -1.259  1.00  0.00    -0.009 C 
HETATM   49  C9  UNL     1      -6.383   2.706  -2.155  1.00  0.00     0.013 C 
HETATM   50  C10 UNL     1      -7.596   3.337  -1.863  1.00  0.00     0.001 C 
HETATM   51  C11 UNL     1      -8.278   3.005  -0.691  1.00  0.00     0.001 C 
HETATM   52  C12 UNL     1      -7.842   1.923   0.080  1.00  0.00     0.013 C 
ENDBRANCH  42  47
ENDBRANCH  36  41
ENDBRANCH   3  35
TORSDOF 6
