REMARK  6 active torsions:
REMARK  status: ('A' for Active; 'I' for Inactive)
REMARK    1  A    between atoms: C2_2  and  C3_3 
REMARK    2  A    between atoms: C7_7  and  C8_8 
REMARK       I    between atoms: C8_8  and  N1_10 
REMARK    3  A    between atoms: C12_14  and  N2_15 
REMARK       I    between atoms: N2_15  and  C13_16 
REMARK    4  A    between atoms: C13_16  and  C14_18 
REMARK    5  A    between atoms: C14_18  and  C15_19 
REMARK    6  A    between atoms: C15_19  and  N3_20 
REMARK       I    between atoms: N3_20  and  C16_21 
REMARK       I    between atoms: C16_21  and  N4_22 
ROOT
HETATM    1  C8  UNL     1      -0.079   1.639  -2.051  1.00  0.00     0.254 C 
HETATM    2  O1  UNL     1      -1.069   1.615  -2.829  1.00  0.00    -0.267 OA
HETATM    3  N1  UNL     1      -0.075   2.526  -0.923  1.00  0.00    -0.339 N 
HETATM    4  C9  UNL     1      -1.127   3.485  -0.634  1.00  0.00     0.088 C 
HETATM    5  C10 UNL     1      -2.340   2.769   0.005  1.00  0.00     0.027 C 
HETATM    6  C11 UNL     1      -2.017   1.964   1.288  1.00  0.00     0.027 C 
HETATM    7  C12 UNL     1      -1.051   0.778   1.037  1.00  0.00     0.086 C 
HETATM    8  C17 UNL     1       0.448   1.194   1.087  1.00  0.00     0.050 C 
HETATM    9  C18 UNL     1       0.830   2.414   0.210  1.00  0.00     0.090 C 
HETATM   10  C19 UNL     1       0.698   3.752   0.960  1.00  0.00     0.027 C 
HETATM   11  C20 UNL     1      -0.483   4.488   0.325  1.00  0.00     0.027 C 
ENDROOT
BRANCH   7  12
HETATM   12  N2  UNL     1      -1.303  -0.291   2.013  1.00  0.00    -0.356 N 
HETATM   13  C13 UNL     1      -2.419  -1.187   1.890  1.00  0.00     0.219 C 
HETATM   14  O2  UNL     1      -3.302  -0.984   1.014  1.00  0.00    -0.274 OA
HETATM   15  H15 UNL     1      -0.622  -0.453   2.787  1.00  0.00     0.162 HD
BRANCH  13  16
HETATM   16  C14 UNL     1      -2.539  -2.381   2.794  1.00  0.00     0.122 C 
BRANCH  16  17
HETATM   17  C15 UNL     1      -2.434  -3.686   1.995  1.00  0.00     0.133 C 
BRANCH  17  18
HETATM   18  N3  UNL     1      -2.531  -4.851   2.876  1.00  0.00    -0.343 N 
HETATM   19  C16 UNL     1      -2.528  -6.188   2.356  1.00  0.00     0.313 C 
HETATM   20  N4  UNL     1      -2.635  -7.302   3.243  1.00  0.00    -0.352 N 
HETATM   21  O3  UNL     1      -2.437  -6.385   1.116  1.00  0.00    -0.248 OA
HETATM   22  H21 UNL     1      -2.648  -8.274   2.870  1.00  0.00     0.160 HD
HETATM   23  H22 UNL     1      -2.694  -7.153   4.273  1.00  0.00     0.160 HD
HETATM   24  H20 UNL     1      -2.603  -4.725   3.910  1.00  0.00     0.164 HD
ENDBRANCH  17  18
ENDBRANCH  16  17
ENDBRANCH  13  16
ENDBRANCH   7  12
BRANCH   1  25
HETATM   25  C7  UNL     1       1.049   0.724  -2.298  1.00  0.00     0.032 A 
HETATM   26  C6  UNL     1       0.871  -0.665  -2.183  1.00  0.00     0.017 A 
HETATM   27  C5  UNL     1       1.952  -1.534  -2.374  1.00  0.00     0.002 A 
HETATM   28  C4  UNL     1       3.210  -1.024  -2.692  1.00  0.00     0.007 A 
HETATM   29  C3  UNL     1       3.395   0.366  -2.827  1.00  0.00    -0.058 A 
HETATM   30  C21 UNL     1       2.310   1.237  -2.630  1.00  0.00     0.024 A 
BRANCH  29  31
HETATM   31  C2  UNL     1       4.730   0.919  -3.249  1.00  0.00     0.034 C 
HETATM   32  C1  UNL     1       4.850   0.948  -4.771  1.00  0.00     0.010 C 
ENDBRANCH  29  31
ENDBRANCH   1  25
TORSDOF 6
