REMARK  1 active torsions:
REMARK  status: ('A' for Active; 'I' for Inactive)
REMARK    1  A    between atoms: C8_8  and  C9_9 
REMARK       I    between atoms: C9_9  and  N1_11 
ROOT
HETATM    1  C9  UNL     1       0.284   0.858   0.615  1.00  0.00     0.270 C 
HETATM    2  O1  UNL     1       0.661   1.656   1.516  1.00  0.00    -0.266 OA
HETATM    3  N1  UNL     1       1.210   0.452  -0.415  1.00  0.00    -0.340 N 
HETATM    4  C10 UNL     1       2.331   1.330  -0.763  1.00  0.00     0.167 C 
HETATM    5  C11 UNL     1       3.516   1.040   0.123  1.00  0.00    -0.007 A 
HETATM    6  C12 UNL     1       4.240   2.125   0.651  1.00  0.00     0.011 A 
HETATM    7  C13 UNL     1       5.313   1.911   1.516  1.00  0.00     0.001 A 
HETATM    8  C14 UNL     1       5.680   0.613   1.867  1.00  0.00     0.003 A 
HETATM    9  C15 UNL     1       4.983  -0.476   1.341  1.00  0.00     0.037 A 
HETATM   10  C16 UNL     1       3.916  -0.285   0.453  1.00  0.00     0.076 A 
HETATM   11  O2  UNL     1       3.290  -1.440  -0.049  1.00  0.00    -0.349 OA
HETATM   12  C17 UNL     1       2.498  -1.510  -1.232  1.00  0.00     0.195 C 
HETATM   13  C18 UNL     1       1.117  -0.885  -1.017  1.00  0.00     0.153 C 
ENDROOT
BRANCH   1  14
HETATM   14  C8  UNL     1      -1.092   0.327   0.670  1.00  0.00     0.104 A 
HETATM   15  C7  UNL     1      -1.665  -0.180   1.826  1.00  0.00     0.049 A 
HETATM   16  C6  UNL     1      -2.922  -0.589   1.454  1.00  0.00    -0.006 A 
HETATM   17  C5  UNL     1      -3.916  -1.174   2.231  1.00  0.00     0.014 A 
HETATM   18  C20 UNL     1      -3.088  -0.320   0.112  1.00  0.00     0.051 A 
HETATM   19  C4  UNL     1      -5.129  -1.498   1.613  1.00  0.00     0.002 A 
HETATM   20  C3  UNL     1      -5.321  -1.242   0.242  1.00  0.00     0.009 A 
HETATM   21  C2  UNL     1      -4.301  -0.655  -0.542  1.00  0.00    -0.034 A 
HETATM   22  C1  UNL     1      -4.547  -0.435  -2.009  1.00  0.00     0.050 C 
HETATM   23  N2  UNL     1      -1.961   0.265  -0.377  1.00  0.00    -0.346 N 
HETATM   24  C19 UNL     1      -1.752   0.849  -1.705  1.00  0.00     0.156 C 
ENDBRANCH   1  14
TORSDOF 1
