REMARK  1 active torsions:
REMARK  status: ('A' for Active; 'I' for Inactive)
REMARK       I    between atoms: N1_4  and  C4_5 
REMARK    1  A    between atoms: C4_5  and  C5_7 
ROOT
HETATM    1  C1  UNL     1      -1.751  -3.368  -0.640  1.00  0.00     0.041 C 
HETATM    2  C2  UNL     1      -1.162  -2.082  -0.061  1.00  0.00     0.137 C 
HETATM    3  C3  UNL     1       0.180  -2.351   0.626  1.00  0.00     0.164 C 
HETATM    4  N1  UNL     1       0.993  -1.128   0.678  1.00  0.00    -0.310 N 
HETATM    5  C4  UNL     1       2.425  -1.235   0.538  1.00  0.00     0.266 C 
HETATM    6  O1  UNL     1       3.012  -2.288   0.908  1.00  0.00    -0.266 OA
HETATM    7  C8  UNL     1       0.412   0.092   1.183  1.00  0.00     0.046 A 
HETATM    8  C9  UNL     1       0.976   0.680   2.330  1.00  0.00     0.030 A 
HETATM    9  C10 UNL     1       0.483   1.881   2.835  1.00  0.00     0.002 A 
HETATM   10  C11 UNL     1      -0.574   2.520   2.196  1.00  0.00     0.001 A 
HETATM   11  C12 UNL     1      -1.151   1.955   1.059  1.00  0.00     0.012 A 
HETATM   12  C13 UNL     1      -0.695   0.721   0.541  1.00  0.00     0.003 A 
HETATM   13  C14 UNL     1      -1.344   0.155  -0.743  1.00  0.00     0.090 A 
HETATM   14  C15 UNL     1      -1.176   1.101  -1.939  1.00  0.00     0.043 A 
HETATM   15  C16 UNL     1      -2.687   1.268  -2.030  1.00  0.00     0.007 A 
HETATM   16  C17 UNL     1      -2.872   0.317  -0.856  1.00  0.00     0.043 A 
HETATM   17  O2  UNL     1      -0.945  -1.158  -1.112  1.00  0.00    -0.369 OA
ENDROOT
BRANCH   5  18
HETATM   18  C5  UNL     1       3.228  -0.135  -0.028  1.00  0.00     0.091 A 
HETATM   19  C6  UNL     1       2.765   0.940  -0.782  1.00  0.00     0.141 A 
HETATM   20  N2  UNL     1       3.730   1.798  -1.206  1.00  0.00    -0.265 NA
HETATM   21  C7  UNL     1       4.964   1.421  -0.806  1.00  0.00     0.166 A 
HETATM   22  S1  UNL     1       4.901  -0.002   0.087  1.00  0.00    -0.076 SA
ENDBRANCH   5  18
TORSDOF 1
