REMARK  3 active torsions:
REMARK  status: ('A' for Active; 'I' for Inactive)
REMARK    1  A    between atoms: C3_6  and  C4_7 
REMARK    2  A    between atoms: C4_7  and  C5_8 
REMARK       I    between atoms: C5_8  and  N3_10 
REMARK    3  A    between atoms: N4_18  and  C13_19 
ROOT
HETATM    1  C13 UNL     1      -1.557   2.248   1.283  1.00  0.00     0.125 A 
HETATM    2  C14 UNL     1      -2.723   2.733   0.665  1.00  0.00     0.052 A 
HETATM    3  C15 UNL     1      -3.194   4.008   0.986  1.00  0.00     0.028 A 
HETATM    4  C16 UNL     1      -2.510   4.787   1.924  1.00  0.00     0.062 A 
HETATM    5  C17 UNL     1      -2.986   6.101   2.265  1.00  0.00     0.101 C 
HETATM    6  N5  UNL     1      -3.369   7.158   2.540  1.00  0.00    -0.191 NA
HETATM    7  C18 UNL     1      -1.363   4.268   2.533  1.00  0.00     0.141 A 
HETATM    8  N6  UNL     1      -0.921   3.025   2.205  1.00  0.00    -0.242 NA
ENDROOT
BRANCH   1   9
HETATM    9  N4  UNL     1      -1.050   0.930   0.990  1.00  0.00    -0.359 N 
HETATM   10  C11 UNL     1      -1.046   0.437  -0.403  1.00  0.00     0.104 C 
HETATM   11  C10 UNL     1      -2.105  -0.669  -0.650  1.00  0.00     0.027 C 
HETATM   12  C12 UNL     1       0.375   0.061  -0.865  1.00  0.00     0.151 C 
HETATM   13  C9  UNL     1      -2.582  -1.396   0.613  1.00  0.00     0.002 C 
HETATM   14  C8  UNL     1      -1.475  -2.182   1.329  1.00  0.00     0.008 C 
HETATM   15  C7  UNL     1      -0.264  -1.349   1.833  1.00  0.00     0.022 C 
HETATM   16  C6  UNL     1       1.005  -1.552   0.984  1.00  0.00     0.132 C 
HETATM   17  C19 UNL     1      -0.558   0.138   2.133  1.00  0.00     0.131 C 
HETATM   18  N3  UNL     1       0.775  -1.282  -0.438  1.00  0.00    -0.349 N 
HETATM   19  C5  UNL     1       1.169  -2.242  -1.439  1.00  0.00     0.225 C 
HETATM   20  O2  UNL     1       0.433  -2.428  -2.446  1.00  0.00    -0.273 OA
BRANCH  19  21
HETATM   21  C4  UNL     1       2.468  -2.994  -1.341  1.00  0.00     0.166 C 
BRANCH  21  22
HETATM   22  C3  UNL     1       3.357  -2.643  -2.495  1.00  0.00     0.099 A 
HETATM   23  C2  UNL     1       4.059  -1.476  -2.695  1.00  0.00     0.087 A 
HETATM   24  C1  UNL     1       4.077  -0.259  -1.829  1.00  0.00     0.075 C 
HETATM   25  N1  UNL     1       4.652  -1.563  -3.897  1.00  0.00    -0.108 NA
HETATM   26  O1  UNL     1       4.322  -2.734  -4.367  1.00  0.00    -0.106 OA
HETATM   27  N2  UNL     1       3.545  -3.419  -3.575  1.00  0.00    -0.107 NA
ENDBRANCH  21  22
ENDBRANCH  19  21
ENDBRANCH   1   9
TORSDOF 3
