REMARK  5 active torsions:
REMARK  status: ('A' for Active; 'I' for Inactive)
REMARK    1  A    between atoms: C6_6  and  C7_7 
REMARK    2  A    between atoms: C17_19  and  O2_20 
REMARK    3  A    between atoms: O2_20  and  C18_21 
REMARK    4  A    between atoms: C21_25  and  C22_26 
REMARK    5  A    between atoms: C22_26  and  N2_27 
ROOT
HETATM    1  C1  UNL     1      -3.690  -3.036  -0.273  1.00  0.00     0.051 C 
HETATM    2  C2  UNL     1      -2.509  -2.974   0.655  1.00  0.00    -0.028 A 
HETATM    3  C3  UNL     1      -2.376  -3.961   1.641  1.00  0.00     0.009 A 
HETATM    4  C4  UNL     1      -1.275  -3.962   2.498  1.00  0.00     0.002 A 
HETATM    5  C5  UNL     1      -0.287  -2.986   2.371  1.00  0.00     0.015 A 
HETATM    6  C6  UNL     1      -0.401  -1.980   1.399  1.00  0.00     0.008 A 
HETATM    7  C17 UNL     1      -1.541  -1.949   0.563  1.00  0.00     0.086 A 
ENDROOT
BRANCH   6   8
HETATM    8  C7  UNL     1       0.663  -0.953   1.280  1.00  0.00    -0.022 A 
HETATM    9  C8  UNL     1       1.132  -0.287   2.418  1.00  0.00     0.014 A 
HETATM   10  C9  UNL     1       2.099   0.711   2.302  1.00  0.00     0.031 A 
HETATM   11  C10 UNL     1       2.623   1.065   1.051  1.00  0.00     0.041 A 
HETATM   12  C11 UNL     1       2.147   0.410  -0.107  1.00  0.00    -0.030 A 
HETATM   13  N1  UNL     1       3.620   2.100   0.994  1.00  0.00    -0.327 N 
HETATM   14  C12 UNL     1       1.188  -0.610   0.025  1.00  0.00     0.021 A 
HETATM   15  C13 UNL     1       2.576   0.832  -1.488  1.00  0.00     0.041 C 
HETATM   16  C14 UNL     1       4.074   0.615  -1.709  1.00  0.00     0.014 C 
HETATM   17  C15 UNL     1       4.902   1.794  -1.201  1.00  0.00     0.103 C 
HETATM   18  C16 UNL     1       4.856   1.937   0.290  1.00  0.00     0.222 C 
HETATM   19  O1  UNL     1       5.939   2.041   0.926  1.00  0.00    -0.273 OA
HETATM   20  H16 UNL     1       3.645   2.772   1.794  1.00  0.00     0.169 HD
ENDBRANCH   6   8
BRANCH   7  21
HETATM   21  O2  UNL     1      -1.688  -0.904  -0.357  1.00  0.00    -0.342 OA
BRANCH  21  22
HETATM   22  C18 UNL     1      -2.650   0.143  -0.200  1.00  0.00     0.160 C 
HETATM   23  C19 UNL     1      -2.347   1.036   0.989  1.00  0.00     0.200 C 
HETATM   24  O3  UNL     1      -2.820   2.334   0.715  1.00  0.00    -0.388 OA
HETATM   25  C20 UNL     1      -3.084   2.410  -0.668  1.00  0.00     0.176 C 
HETATM   26  C21 UNL     1      -2.634   1.119  -1.353  1.00  0.00     0.069 C 
BRANCH  26  27
HETATM   27  C22 UNL     1      -1.239   1.274  -2.005  1.00  0.00     0.276 C 
BRANCH  27  28
HETATM   28  N2  UNL     1      -1.288   2.229  -3.105  1.00  0.00     0.078 N 
HETATM   29  H25 UNL     1      -1.834   1.800  -3.884  1.00  0.00     0.312 HD
HETATM   30  H26 UNL     1      -0.312   2.355  -3.454  1.00  0.00     0.312 HD
ENDBRANCH  27  28
ENDBRANCH  26  27
ENDBRANCH  21  22
ENDBRANCH   7  21
TORSDOF 5
