REMARK  2 active torsions:
REMARK  status: ('A' for Active; 'I' for Inactive)
REMARK    1  A    between atoms: C1_2  and  C2_3 
REMARK    2  A    between atoms: C1_2  and  C21_24 
ROOT
HETATM    1  C2  UNL     1      -1.324   0.647  -0.537  1.00  0.00     0.017 A 
HETATM    2  C3  UNL     1      -1.234  -0.588   0.126  1.00  0.00     0.016 A 
HETATM    3  C4  UNL     1      -2.350  -1.422   0.221  1.00  0.00     0.015 A 
HETATM    4  C5  UNL     1      -3.582  -1.026  -0.321  1.00  0.00     0.002 A 
HETATM    5  C6  UNL     1      -3.691   0.230  -0.949  1.00  0.00     0.047 A 
HETATM    6  C7  UNL     1      -2.563   1.054  -1.057  1.00  0.00     0.046 A 
HETATM    7  N1  UNL     1      -4.918   0.647  -1.562  1.00  0.00    -0.322 N 
HETATM    8  C8  UNL     1      -6.085   0.993  -0.803  1.00  0.00     0.257 C 
HETATM    9  O2  UNL     1      -7.060   1.532  -1.389  1.00  0.00    -0.267 OA
HETATM   10  C9  UNL     1      -6.151   0.794   0.659  1.00  0.00     0.043 A 
HETATM   11  C10 UNL     1      -6.371   1.909   1.482  1.00  0.00     0.018 A 
HETATM   12  C11 UNL     1      -6.473   1.758   2.868  1.00  0.00     0.001 A 
HETATM   13  C12 UNL     1      -6.368   0.491   3.444  1.00  0.00     0.001 A 
HETATM   14  C13 UNL     1      -6.167  -0.630   2.635  1.00  0.00     0.013 A 
HETATM   15  C14 UNL     1      -6.051  -0.491   1.241  1.00  0.00    -0.009 A 
HETATM   16  C15 UNL     1      -5.901  -1.709   0.413  1.00  0.00    -0.014 A 
HETATM   17  C16 UNL     1      -6.944  -2.652   0.401  1.00  0.00     0.013 A 
HETATM   18  C17 UNL     1      -6.818  -3.838  -0.326  1.00  0.00     0.001 A 
HETATM   19  C18 UNL     1      -5.647  -4.100  -1.039  1.00  0.00     0.001 A 
HETATM   20  C19 UNL     1      -4.600  -3.175  -1.031  1.00  0.00     0.013 A 
HETATM   21  C20 UNL     1      -4.716  -1.973  -0.312  1.00  0.00    -0.013 A 
HETATM   22  H4  UNL     1      -4.883   0.950  -2.562  1.00  0.00     0.169 HD
ENDROOT
BRANCH   1  23
HETATM   23  C1  UNL     1      -0.140   1.528  -0.677  1.00  0.00     0.192 C 
HETATM   24  O1  UNL     1      -0.304   2.775  -0.595  1.00  0.00    -0.287 OA
BRANCH  23  25
HETATM   25  C21 UNL     1       1.223   0.998  -0.938  1.00  0.00     0.016 A 
HETATM   26  C22 UNL     1       2.349   1.742  -0.550  1.00  0.00     0.028 A 
HETATM   27  C23 UNL     1       3.646   1.280  -0.824  1.00  0.00    -0.018 A 
HETATM   28  C24 UNL     1       3.824   0.064  -1.523  1.00  0.00    -0.047 A 
HETATM   29  C40 UNL     1       4.803   2.060  -0.326  1.00  0.00    -0.014 A 
HETATM   30  C25 UNL     1       2.696  -0.683  -1.895  1.00  0.00     0.009 A 
HETATM   31  C27 UNL     1       5.202  -0.407  -1.947  1.00  0.00     0.044 C 
HETATM   32  C26 UNL     1       1.410  -0.218  -1.614  1.00  0.00     0.016 A 
HETATM   33  C28 UNL     1       6.109  -0.952  -0.816  1.00  0.00     0.044 C 
HETATM   34  C29 UNL     1       5.498  -0.960   0.571  1.00  0.00    -0.047 A 
HETATM   35  C30 UNL     1       5.115  -2.180   1.152  1.00  0.00     0.008 A 
HETATM   36  C34 UNL     1       5.355   0.235   1.317  1.00  0.00    -0.019 A 
HETATM   37  C31 UNL     1       4.644  -2.223   2.467  1.00  0.00     0.001 A 
HETATM   38  C32 UNL     1       4.543  -1.049   3.214  1.00  0.00     0.001 A 
HETATM   39  C33 UNL     1       4.893   0.175   2.642  1.00  0.00     0.013 A 
HETATM   40  C35 UNL     1       5.625   1.557   0.709  1.00  0.00    -0.014 A 
HETATM   41  C36 UNL     1       6.682   2.341   1.197  1.00  0.00     0.013 A 
HETATM   42  C37 UNL     1       6.929   3.606   0.657  1.00  0.00     0.001 A 
HETATM   43  C38 UNL     1       6.114   4.105  -0.363  1.00  0.00     0.001 A 
HETATM   44  C39 UNL     1       5.051   3.339  -0.849  1.00  0.00     0.013 A 
ENDBRANCH  23  25
ENDBRANCH   1  23
TORSDOF 2
