REMARK  0 active torsions:
REMARK  status: ('A' for Active; 'I' for Inactive)
ROOT
HETATM    1  C1  UNL     1      -4.413   0.419   0.784  1.00  0.00     0.048 C 
HETATM    2  C2  UNL     1      -2.981   0.086   0.484  1.00  0.00    -0.061 A 
HETATM    3  C3  UNL     1      -2.523  -1.225   0.626  1.00  0.00     0.007 A 
HETATM    4  C4  UNL     1      -1.206  -1.545   0.315  1.00  0.00     0.016 A 
HETATM    5  C5  UNL     1      -0.317  -0.563  -0.154  1.00  0.00     0.013 A 
HETATM    6  C6  UNL     1      -0.766   0.794  -0.325  1.00  0.00     0.045 A 
HETATM    7  C7  UNL     1      -2.115   1.074  -0.002  1.00  0.00     0.024 A 
HETATM    8  C8  UNL     1       0.077   1.977  -0.803  1.00  0.00     0.258 C 
HETATM    9  O1  UNL     1      -0.525   3.033  -1.143  1.00  0.00    -0.267 OA
HETATM   10  N1  UNL     1       1.523   2.020  -0.834  1.00  0.00    -0.303 N 
HETATM   11  C9  UNL     1       2.302   0.846  -1.015  1.00  0.00     0.150 C 
HETATM   12  C10 UNL     1       3.515   0.699  -0.479  1.00  0.00     0.056 C 
HETATM   13  C11 UNL     1       4.062  -0.661  -0.200  1.00  0.00     0.004 C 
HETATM   14  C12 UNL     1       3.314  -1.748   0.127  1.00  0.00     0.003 C 
HETATM   15  C13 UNL     1       1.826  -1.763   0.257  1.00  0.00     0.038 C 
HETATM   16  C14 UNL     1       1.058  -0.960  -0.496  1.00  0.00     0.089 C 
HETATM   17  O2  UNL     1       1.664  -0.259  -1.495  1.00  0.00    -0.293 OA
HETATM   18  H7  UNL     1       2.004   2.944  -0.755  1.00  0.00     0.171 HD
ENDROOT
TORSDOF 0
