REMARK  3 active torsions:
REMARK  status: ('A' for Active; 'I' for Inactive)
REMARK    1  A    between atoms: C6_7  and  S1_8 
REMARK    2  A    between atoms: S1_8  and  N2_11 
REMARK       I    between atoms: N2_11  and  C7_12 
REMARK    3  A    between atoms: C7_12  and  C8_14 
ROOT
HETATM    1  C8  UNL     1       0.143  -0.745   0.600  1.00  0.00     0.035 A 
HETATM    2  C9  UNL     1       0.298   0.633   0.391  1.00  0.00     0.018 A 
HETATM    3  C10 UNL     1       1.536   1.159   0.022  1.00  0.00     0.015 A 
HETATM    4  C11 UNL     1       2.659   0.328  -0.137  1.00  0.00     0.002 A 
HETATM    5  C12 UNL     1       2.522  -1.062   0.121  1.00  0.00     0.046 A 
HETATM    6  C13 UNL     1       1.264  -1.580   0.467  1.00  0.00     0.047 A 
HETATM    7  N3  UNL     1       3.623  -1.981   0.005  1.00  0.00    -0.326 N 
HETATM    8  C14 UNL     1       4.925  -1.722   0.543  1.00  0.00     0.226 C 
HETATM    9  O4  UNL     1       5.797  -2.631   0.527  1.00  0.00    -0.273 OA
HETATM   10  C15 UNL     1       5.268  -0.380   1.102  1.00  0.00     0.142 C 
HETATM   11  C16 UNL     1       5.181   0.630  -0.005  1.00  0.00    -0.038 A 
HETATM   12  C17 UNL     1       6.356   1.241  -0.479  1.00  0.00     0.008 A 
HETATM   13  C18 UNL     1       6.304   2.153  -1.533  1.00  0.00     0.001 A 
HETATM   14  C19 UNL     1       5.084   2.459  -2.132  1.00  0.00     0.001 A 
HETATM   15  C20 UNL     1       3.909   1.856  -1.677  1.00  0.00     0.013 A 
HETATM   16  C21 UNL     1       3.938   0.936  -0.610  1.00  0.00    -0.017 A 
HETATM   17  H11 UNL     1       3.417  -2.960  -0.299  1.00  0.00     0.169 HD
ENDROOT
BRANCH   1  18
HETATM   18  C7  UNL     1      -1.169  -1.319   0.986  1.00  0.00     0.265 C 
HETATM   19  N2  UNL     1      -2.396  -0.661   0.643  1.00  0.00    -0.245 N 
HETATM   20  H7  UNL     1      -2.397   0.161   0.001  1.00  0.00     0.182 HD
HETATM   21  O3  UNL     1      -1.205  -2.414   1.611  1.00  0.00    -0.267 OA
BRANCH  19  22
HETATM   22  S1  UNL     1      -3.927  -1.245   1.208  1.00  0.00     0.283 S 
HETATM   23  O1  UNL     1      -3.980  -1.118   2.705  1.00  0.00    -0.199 OA
HETATM   24  O2  UNL     1      -4.106  -2.688   0.829  1.00  0.00    -0.199 OA
BRANCH  22  25
HETATM   25  C6  UNL     1      -5.223  -0.279   0.502  1.00  0.00     0.177 A 
HETATM   26  C2  UNL     1      -5.541  -0.333  -0.875  1.00  0.00    -0.020 A 
HETATM   27  C1  UNL     1      -4.820  -1.247  -1.829  1.00  0.00     0.051 C 
HETATM   28  C3  UNL     1      -6.595   0.465  -1.349  1.00  0.00     0.011 A 
HETATM   29  C4  UNL     1      -7.292   1.302  -0.479  1.00  0.00     0.020 A 
HETATM   30  C5  UNL     1      -6.937   1.334   0.868  1.00  0.00     0.118 A 
HETATM   31  N1  UNL     1      -5.924   0.551   1.322  1.00  0.00    -0.247 NA
ENDBRANCH  22  25
ENDBRANCH  19  22
ENDBRANCH   1  18
TORSDOF 3
