REMARK  4 active torsions:
REMARK  status: ('A' for Active; 'I' for Inactive)
REMARK    1  A    between atoms: C5_5  and  N1_6 
REMARK    2  A    between atoms: C19_20  and  C20_21 
REMARK    3  A    between atoms: C20_21  and  C21_23 
REMARK    4  A    between atoms: C26_28  and  O2_29 
ROOT
HETATM    1  C1  UNL     1       2.767  -1.166   2.881  1.00  0.00     0.049 C 
HETATM    2  C2  UNL     1       1.689  -0.853   1.876  1.00  0.00    -0.048 A 
HETATM    3  C3  UNL     1       0.454  -0.374   2.340  1.00  0.00     0.010 A 
HETATM    4  C4  UNL     1      -0.584  -0.102   1.448  1.00  0.00     0.030 A 
HETATM    5  C5  UNL     1      -0.416  -0.313   0.073  1.00  0.00     0.035 A 
HETATM    6  C18 UNL     1       0.830  -0.753  -0.402  1.00  0.00     0.045 A 
HETATM    7  C19 UNL     1       1.891  -1.008   0.483  1.00  0.00     0.023 A 
ENDROOT
BRANCH   5   8
HETATM    8  N1  UNL     1      -1.495  -0.021  -0.838  1.00  0.00    -0.346 N 
HETATM    9  C6  UNL     1      -1.855  -0.950  -1.921  1.00  0.00     0.129 C 
HETATM   10  C7  UNL     1      -3.061  -1.812  -1.537  1.00  0.00     0.021 C 
HETATM   11  C8  UNL     1      -4.377  -1.022  -1.514  1.00  0.00     0.016 C 
HETATM   12  C9  UNL     1      -4.389   0.058  -0.419  1.00  0.00    -0.011 A 
HETATM   13  C10 UNL     1      -4.385  -0.462   1.018  1.00  0.00     0.015 A 
HETATM   14  C11 UNL     1      -5.649   0.155   0.446  1.00  0.00     0.015 A 
HETATM   15  C12 UNL     1      -3.577   1.317  -0.639  1.00  0.00    -0.023 A 
HETATM   16  C13 UNL     1      -4.210   2.571  -0.742  1.00  0.00     0.010 A 
HETATM   17  C17 UNL     1      -2.171   1.247  -0.758  1.00  0.00     0.042 A 
HETATM   18  C14 UNL     1      -3.454   3.738  -0.875  1.00  0.00     0.001 A 
HETATM   19  C15 UNL     1      -2.062   3.669  -0.926  1.00  0.00     0.002 A 
HETATM   20  C16 UNL     1      -1.423   2.429  -0.876  1.00  0.00     0.030 A 
ENDBRANCH   5   8
BRANCH   7  21
HETATM   21  C20 UNL     1       3.191  -1.434  -0.084  1.00  0.00     0.195 C 
HETATM   22  O1  UNL     1       3.211  -2.414  -0.876  1.00  0.00    -0.287 OA
BRANCH  21  23
HETATM   23  C21 UNL     1       4.449  -0.706   0.217  1.00  0.00     0.048 A 
HETATM   24  C22 UNL     1       4.413   0.676   0.490  1.00  0.00     0.018 A 
HETATM   25  C23 UNL     1       5.590   1.376   0.765  1.00  0.00     0.001 A 
HETATM   26  C24 UNL     1       6.816   0.712   0.766  1.00  0.00     0.003 A 
HETATM   27  C25 UNL     1       6.870  -0.656   0.493  1.00  0.00     0.037 A 
HETATM   28  C26 UNL     1       5.695  -1.372   0.219  1.00  0.00     0.079 A 
BRANCH  28  29
HETATM   29  O2  UNL     1       5.765  -2.741  -0.035  1.00  0.00    -0.360 OA
HETATM   30  H25 UNL     1       6.648  -3.239  -0.033  1.00  0.00     0.217 HD
ENDBRANCH  28  29
ENDBRANCH  21  23
ENDBRANCH   7  21
TORSDOF 4
