REMARK  4 active torsions:
REMARK  status: ('A' for Active; 'I' for Inactive)
REMARK    1  A    between atoms: C1_2  and  C2_3 
REMARK    2  A    between atoms: C1_2  and  C24_26 
REMARK    3  A    between atoms: C4_5  and  C5_6 
REMARK    4  A    between atoms: C8_9  and  C9_10 
ROOT
HETATM    1  C2  UNL     1       0.142   0.848   1.339  1.00  0.00     0.040 A 
HETATM    2  C3  UNL     1      -1.126   1.351   1.132  1.00  0.00     0.055 A 
HETATM    3  C4  UNL     1      -1.882   0.280   0.678  1.00  0.00     0.087 A 
HETATM    4  O2  UNL     1      -1.131  -0.799   0.629  1.00  0.00    -0.321 OA
HETATM    5  C23 UNL     1       0.083  -0.497   1.025  1.00  0.00     0.158 A 
ENDROOT
BRANCH   1   6
HETATM    6  C1  UNL     1       1.304   1.605   1.849  1.00  0.00     0.195 C 
HETATM    7  O1  UNL     1       1.100   2.703   2.436  1.00  0.00    -0.287 OA
BRANCH   6   8
HETATM    8  C24 UNL     1       2.694   1.113   1.706  1.00  0.00     0.033 A 
HETATM    9  C25 UNL     1       3.639   1.371   2.708  1.00  0.00     0.132 A 
HETATM   10  N1  UNL     1       4.918   0.936   2.573  1.00  0.00    -0.259 NA
HETATM   11  C26 UNL     1       5.348   0.254   1.475  1.00  0.00     0.074 A 
HETATM   12  C27 UNL     1       4.432  -0.032   0.441  1.00  0.00    -0.023 A 
HETATM   13  C41 UNL     1       6.761  -0.210   1.431  1.00  0.00     0.004 A 
HETATM   14  C28 UNL     1       3.111   0.426   0.557  1.00  0.00     0.026 A 
HETATM   15  C29 UNL     1       4.868  -0.764  -0.795  1.00  0.00     0.080 C 
HETATM   16  C30 UNL     1       5.810   0.121  -1.558  1.00  0.00    -0.043 A 
HETATM   17  C31 UNL     1       5.397   0.688  -2.776  1.00  0.00     0.008 A 
HETATM   18  C35 UNL     1       7.080   0.448  -1.026  1.00  0.00    -0.018 A 
HETATM   19  C32 UNL     1       6.237   1.557  -3.473  1.00  0.00     0.001 A 
HETATM   20  C33 UNL     1       7.490   1.880  -2.956  1.00  0.00     0.001 A 
HETATM   21  C34 UNL     1       7.911   1.332  -1.742  1.00  0.00     0.013 A 
HETATM   22  C36 UNL     1       7.568  -0.140   0.258  1.00  0.00    -0.013 A 
HETATM   23  C37 UNL     1       8.892  -0.623   0.314  1.00  0.00     0.013 A 
HETATM   24  C38 UNL     1       9.418  -1.140   1.498  1.00  0.00     0.001 A 
HETATM   25  C39 UNL     1       8.635  -1.185   2.648  1.00  0.00     0.001 A 
HETATM   26  C40 UNL     1       7.320  -0.723   2.617  1.00  0.00     0.014 A 
ENDBRANCH   6   8
ENDBRANCH   1   6
BRANCH   3  27
HETATM   27  C5  UNL     1      -3.314   0.289   0.284  1.00  0.00     0.009 C 
HETATM   28  C6  UNL     1      -4.116   1.308   0.636  1.00  0.00     0.016 C 
HETATM   29  C7  UNL     1      -5.522   1.463   0.215  1.00  0.00     0.013 C 
HETATM   30  C8  UNL     1      -6.429   0.475   0.085  1.00  0.00    -0.025 C 
HETATM   31  C15 UNL     1      -6.134  -0.956   0.343  1.00  0.00     0.024 C 
HETATM   32  C16 UNL     1      -5.000  -1.583  -0.001  1.00  0.00    -0.024 C 
HETATM   33  C17 UNL     1      -4.904  -3.033   0.221  1.00  0.00     0.012 C 
HETATM   34  C22 UNL     1      -3.827  -0.854  -0.504  1.00  0.00    -0.013 C 
HETATM   35  C18 UNL     1      -4.452  -3.892  -0.695  1.00  0.00     0.001 C 
HETATM   36  C19 UNL     1      -4.059  -3.537  -2.073  1.00  0.00     0.000 C 
HETATM   37  C20 UNL     1      -3.523  -2.377  -2.474  1.00  0.00     0.001 C 
HETATM   38  C21 UNL     1      -3.166  -1.237  -1.608  1.00  0.00     0.013 C 
BRANCH  30  39
HETATM   39  C9  UNL     1      -7.833   0.819  -0.263  1.00  0.00    -0.026 A 
HETATM   40  C10 UNL     1      -8.497   1.891   0.364  1.00  0.00     0.012 A 
HETATM   41  C11 UNL     1      -9.818   2.200   0.025  1.00  0.00     0.001 A 
HETATM   42  C12 UNL     1     -10.490   1.443  -0.939  1.00  0.00     0.000 A 
HETATM   43  C13 UNL     1      -9.844   0.373  -1.561  1.00  0.00     0.001 A 
HETATM   44  C14 UNL     1      -8.524   0.058  -1.224  1.00  0.00     0.012 A 
ENDBRANCH  30  39
ENDBRANCH   3  27
TORSDOF 4
