REMARK  2 active torsions:
REMARK  status: ('A' for Active; 'I' for Inactive)
REMARK    1  A    between atoms: C2_6  and  C3_7 
REMARK    2  A    between atoms: C3_7  and  N1_8 
REMARK       I    between atoms: N1_8  and  C4_9 
REMARK       I    between atoms: C4_9  and  N2_11 
ROOT
HETATM    1  N1  UNL     1       2.788   1.178   0.423  1.00  0.00    -0.342 N 
HETATM    2  C4  UNL     1       1.793   1.293  -0.606  1.00  0.00     0.318 C 
HETATM    3  O4  UNL     1       2.145   1.309  -1.817  1.00  0.00    -0.247 OA
HETATM    4  N2  UNL     1       0.397   1.380  -0.271  1.00  0.00    -0.333 N 
HETATM    5  C5  UNL     1      -0.637   1.595  -1.271  1.00  0.00     0.133 C 
HETATM    6  C6  UNL     1      -1.975   1.438  -0.536  1.00  0.00     0.016 C 
HETATM    7  C7  UNL     1      -2.934   0.341  -1.083  1.00  0.00     0.026 C 
HETATM    8  C8  UNL     1      -4.200   0.302  -0.188  1.00  0.00     0.008 C 
HETATM    9  C9  UNL     1      -3.875   0.143   1.325  1.00  0.00     0.005 C 
HETATM   10  C10 UNL     1      -2.355   0.046   1.616  1.00  0.00    -0.008 C 
HETATM   11  C11 UNL     1      -1.779  -1.352   1.229  1.00  0.00     0.008 C 
HETATM   12  C12 UNL     1      -2.379  -1.985  -0.031  1.00  0.00     0.038 C 
HETATM   13  C13 UNL     1      -2.298  -1.076  -1.262  1.00  0.00     0.174 C 
HETATM   14  F1  UNL     1      -2.943  -1.719  -2.306  1.00  0.00    -0.249 F 
HETATM   15  C14 UNL     1      -1.645   1.268   0.962  1.00  0.00     0.014 C 
HETATM   16  C15 UNL     1      -0.116   1.315   1.088  1.00  0.00     0.133 C 
HETATM   17  H6  UNL     1       2.534   1.378   1.416  1.00  0.00     0.164 HD
ENDROOT
BRANCH   1  18
HETATM   18  C3  UNL     1       4.172   0.804   0.135  1.00  0.00     0.149 C 
BRANCH  18  19
HETATM   19  C2  UNL     1       4.248  -0.662  -0.315  1.00  0.00     0.179 A 
HETATM   20  S1  UNL     1       3.905  -1.800   0.965  1.00  0.00     0.273 S 
HETATM   21  O1  UNL     1       2.949  -2.899   0.596  1.00  0.00    -0.198 OA
HETATM   22  O2  UNL     1       3.673  -1.217   2.331  1.00  0.00    -0.198 OA
HETATM   23  O3  UNL     1       5.516  -2.196   0.678  1.00  0.00    -0.274 OA
HETATM   24  C1  UNL     1       5.668  -1.228  -0.348  1.00  0.00     0.214 A 
ENDBRANCH  18  19
ENDBRANCH   1  18
TORSDOF 2
