REMARK  2 active torsions:
REMARK  status: ('A' for Active; 'I' for Inactive)
REMARK    1  A    between atoms: O1_2  and  C2_3 
REMARK    2  A    between atoms: C11_13  and  C12_14 
ROOT
HETATM    1  C2  UNL     1       5.471   0.492   0.022  1.00  0.00     0.069 A 
HETATM    2  C3  UNL     1       5.140   0.649   1.384  1.00  0.00     0.037 A 
HETATM    3  C4  UNL     1       3.908   0.201   1.872  1.00  0.00     0.016 A 
HETATM    4  C5  UNL     1       3.001  -0.418   1.008  1.00  0.00    -0.015 A 
HETATM    5  C6  UNL     1       3.317  -0.570  -0.371  1.00  0.00     0.028 A 
HETATM    6  C7  UNL     1       4.554  -0.114  -0.847  1.00  0.00     0.053 A 
HETATM    7  C8  UNL     1       2.288  -1.171  -1.282  1.00  0.00     0.189 C 
HETATM    8  O2  UNL     1       2.454  -1.231  -2.530  1.00  0.00    -0.287 OA
HETATM    9  C9  UNL     1       1.022  -1.617  -0.653  1.00  0.00    -0.002 C 
HETATM   10  C10 UNL     1      -0.096  -0.922  -0.929  1.00  0.00     0.023 C 
HETATM   11  C11 UNL     1      -1.072  -0.500   0.130  1.00  0.00    -0.025 C 
HETATM   12  C22 UNL     1      -0.676  -0.084   1.369  1.00  0.00     0.013 C 
HETATM   13  C23 UNL     1       0.747   0.010   1.815  1.00  0.00     0.009 C 
HETATM   14  C24 UNL     1       1.672  -0.903   1.465  1.00  0.00    -0.043 C 
HETATM   15  C25 UNL     1       1.216  -2.128   0.738  1.00  0.00     0.082 C 
ENDROOT
BRANCH  11  16
HETATM   16  C12 UNL     1      -2.505  -0.428  -0.255  1.00  0.00    -0.025 A 
HETATM   17  C13 UNL     1      -3.072  -1.460  -1.023  1.00  0.00     0.013 A 
HETATM   18  C14 UNL     1      -4.415  -1.411  -1.404  1.00  0.00     0.013 A 
HETATM   19  C15 UNL     1      -5.216  -0.324  -1.029  1.00  0.00    -0.026 A 
HETATM   20  C16 UNL     1      -6.566  -0.265  -1.408  1.00  0.00     0.012 A 
HETATM   21  C20 UNL     1      -4.656   0.727  -0.265  1.00  0.00    -0.025 A 
HETATM   22  C17 UNL     1      -7.353   0.828  -1.032  1.00  0.00     0.001 A 
HETATM   23  C18 UNL     1      -6.800   1.867  -0.280  1.00  0.00     0.001 A 
HETATM   24  C19 UNL     1      -5.457   1.820   0.104  1.00  0.00     0.012 A 
HETATM   25  C21 UNL     1      -3.306   0.670   0.114  1.00  0.00     0.024 A 
ENDBRANCH  11  16
BRANCH   1  26
HETATM   26  O1  UNL     1       6.696   0.927  -0.506  1.00  0.00    -0.356 OA
HETATM   27  C1  UNL     1       7.721   1.559   0.254  1.00  0.00     0.210 C 
ENDBRANCH   1  26
TORSDOF 2
