REMARK  1 active torsions:
REMARK  status: ('A' for Active; 'I' for Inactive)
REMARK    1  A    between atoms: C8_10  and  C9_11 
REMARK       I    between atoms: C9_11  and  N2_13 
ROOT
HETATM    1  C9  UNL     1      -0.080   0.052   1.290  1.00  0.00     0.261 C 
HETATM    2  O2  UNL     1      -0.320   0.459   2.460  1.00  0.00    -0.267 OA
HETATM    3  N2  UNL     1      -0.994   0.372   0.217  1.00  0.00    -0.296 N 
HETATM    4  C10 UNL     1      -0.997  -0.367  -1.056  1.00  0.00     0.164 C 
HETATM    5  C11 UNL     1      -2.227  -1.268  -1.173  1.00  0.00     0.290 C 
HETATM    6  N3  UNL     1      -3.411  -0.489  -1.566  1.00  0.00     0.089 N 
HETATM    7  C12 UNL     1      -4.074   0.137  -0.415  1.00  0.00     0.313 C 
HETATM    8  C13 UNL     1      -3.310   1.333   0.067  1.00  0.00     0.035 A 
HETATM    9  C14 UNL     1      -3.838   2.534   0.504  1.00  0.00     0.151 A 
HETATM   10  N4  UNL     1      -2.859   3.281   1.057  1.00  0.00    -0.185 NA
HETATM   11  N5  UNL     1      -1.733   2.588   0.997  1.00  0.00    -0.262 N 
HETATM   12  C15 UNL     1      -1.977   1.403   0.411  1.00  0.00     0.136 A 
HETATM   13  H13 UNL     1      -4.098  -1.158  -1.988  1.00  0.00     0.316 HD
HETATM   14  H17 UNL     1      -0.815   2.928   1.360  1.00  0.00     0.191 HD
ENDROOT
BRANCH   1  15
HETATM   15  C8  UNL     1       1.103  -0.803   1.082  1.00  0.00     0.060 A 
HETATM   16  C7  UNL     1       1.147  -2.065   1.707  1.00  0.00     0.019 A 
HETATM   17  C6  UNL     1       2.222  -2.942   1.482  1.00  0.00     0.002 A 
HETATM   18  C5  UNL     1       3.271  -2.572   0.630  1.00  0.00     0.010 A 
HETATM   19  C4  UNL     1       3.230  -1.316   0.026  1.00  0.00    -0.021 A 
HETATM   20  C3  UNL     1       4.252  -0.722  -0.885  1.00  0.00     0.144 A 
HETATM   21  C16 UNL     1       2.184  -0.437   0.253  1.00  0.00     0.059 A 
HETATM   22  C2  UNL     1       3.644   0.624  -1.112  1.00  0.00     0.228 A 
HETATM   23  N1  UNL     1       2.399   0.796  -0.434  1.00  0.00    -0.321 N 
HETATM   24  O1  UNL     1       4.176   1.523  -1.817  1.00  0.00    -0.273 OA
HETATM   25  C1  UNL     1       1.755   2.083  -0.182  1.00  0.00     0.159 C 
ENDBRANCH   1  15
TORSDOF 1
