REMARK  3 active torsions:
REMARK  status: ('A' for Active; 'I' for Inactive)
REMARK    1  A    between atoms: C1_2  and  C2_3 
REMARK       I    between atoms: C1_2  and  N1_19 
REMARK    2  A    between atoms: C5_6  and  C6_7 
REMARK    3  A    between atoms: N1_19  and  C18_20 
ROOT
HETATM    1  C18 UNL     1      -0.936  -0.577   0.024  1.00  0.00     0.035 A 
HETATM    2  C19 UNL     1      -1.531  -1.250   1.094  1.00  0.00     0.030 A 
HETATM    3  C20 UNL     1      -2.892  -1.550   1.071  1.00  0.00     0.015 A 
HETATM    4  C21 UNL     1      -3.697  -1.159  -0.011  1.00  0.00    -0.011 A 
HETATM    5  C22 UNL     1      -3.112  -0.441  -1.088  1.00  0.00     0.023 A 
HETATM    6  C23 UNL     1      -1.732  -0.163  -1.054  1.00  0.00     0.045 A 
HETATM    7  C24 UNL     1      -3.876   0.025  -2.275  1.00  0.00     0.164 C 
HETATM    8  O2  UNL     1      -3.362  -0.122  -3.418  1.00  0.00    -0.292 OA
HETATM    9  C25 UNL     1      -5.223   0.688  -2.188  1.00  0.00     0.123 C 
HETATM   10  C26 UNL     1      -5.397   1.466  -0.905  1.00  0.00    -0.040 A 
HETATM   11  C27 UNL     1      -5.074   2.833  -0.867  1.00  0.00     0.008 A 
HETATM   12  C28 UNL     1      -5.248   3.568   0.309  1.00  0.00     0.001 A 
HETATM   13  C29 UNL     1      -5.739   2.945   1.458  1.00  0.00     0.001 A 
HETATM   14  C30 UNL     1      -6.046   1.583   1.440  1.00  0.00     0.013 A 
HETATM   15  C31 UNL     1      -5.863   0.833   0.268  1.00  0.00    -0.018 A 
HETATM   16  C32 UNL     1      -6.149  -0.615   0.272  1.00  0.00    -0.014 A 
HETATM   17  C33 UNL     1      -7.468  -1.055   0.464  1.00  0.00     0.013 A 
HETATM   18  C34 UNL     1      -7.774  -2.417   0.407  1.00  0.00     0.001 A 
HETATM   19  C35 UNL     1      -6.766  -3.350   0.159  1.00  0.00     0.001 A 
HETATM   20  C36 UNL     1      -5.448  -2.925  -0.022  1.00  0.00     0.013 A 
HETATM   21  C37 UNL     1      -5.125  -1.558   0.025  1.00  0.00    -0.014 A 
ENDROOT
BRANCH   1  22
HETATM   22  N1  UNL     1       0.466  -0.268   0.084  1.00  0.00    -0.323 N 
HETATM   23  C1  UNL     1       1.364  -0.369  -1.035  1.00  0.00     0.257 C 
HETATM   24  O1  UNL     1       0.933  -0.678  -2.179  1.00  0.00    -0.267 OA
HETATM   25  H12 UNL     1       0.877  -0.070   1.025  1.00  0.00     0.169 HD
BRANCH  23  26
HETATM   26  C2  UNL     1       2.805  -0.095  -0.858  1.00  0.00     0.043 A 
HETATM   27  C3  UNL     1       3.382   0.902  -1.653  1.00  0.00     0.019 A 
HETATM   28  C4  UNL     1       4.718   1.259  -1.493  1.00  0.00     0.014 A 
HETATM   29  C5  UNL     1       5.521   0.624  -0.539  1.00  0.00    -0.015 A 
HETATM   30  C12 UNL     1       4.965  -0.396   0.276  1.00  0.00    -0.014 A 
HETATM   31  C13 UNL     1       5.731  -1.040   1.273  1.00  0.00     0.013 A 
HETATM   32  C17 UNL     1       3.603  -0.776   0.098  1.00  0.00    -0.009 A 
HETATM   33  C14 UNL     1       5.184  -2.071   2.036  1.00  0.00     0.001 A 
HETATM   34  C15 UNL     1       3.871  -2.480   1.823  1.00  0.00     0.001 A 
HETATM   35  C16 UNL     1       3.085  -1.845   0.863  1.00  0.00     0.013 A 
BRANCH  29  36
HETATM   36  C6  UNL     1       6.941   1.032  -0.445  1.00  0.00    -0.025 A 
HETATM   37  C7  UNL     1       7.964   0.128  -0.777  1.00  0.00     0.012 A 
HETATM   38  C8  UNL     1       9.303   0.521  -0.698  1.00  0.00     0.001 A 
HETATM   39  C9  UNL     1       9.629   1.820  -0.297  1.00  0.00     0.000 A 
HETATM   40  C10 UNL     1       8.616   2.730   0.020  1.00  0.00     0.001 A 
HETATM   41  C11 UNL     1       7.275   2.340  -0.059  1.00  0.00     0.012 A 
ENDBRANCH  29  36
ENDBRANCH  23  26
ENDBRANCH   1  22
TORSDOF 3
