REMARK  3 active torsions:
REMARK  status: ('A' for Active; 'I' for Inactive)
REMARK    1  A    between atoms: O1_2  and  C2_3 
REMARK    2  A    between atoms: N1_14  and  C12_15 
REMARK    3  A    between atoms: C12_15  and  C13_16 
ROOT
HETATM    1  C2  UNL     1      -4.316  -1.289  -0.362  1.00  0.00     0.102 A 
HETATM    2  C3  UNL     1      -4.632  -2.167   0.693  1.00  0.00     0.039 A 
HETATM    3  C4  UNL     1      -4.068  -1.981   1.957  1.00  0.00     0.003 A 
HETATM    4  C5  UNL     1      -3.199  -0.912   2.189  1.00  0.00     0.012 A 
HETATM    5  C6  UNL     1      -2.888  -0.024   1.150  1.00  0.00     0.006 A 
HETATM    6  C7  UNL     1      -3.429  -0.229  -0.129  1.00  0.00     0.111 A 
HETATM    7  O2  UNL     1      -3.080   0.629  -1.179  1.00  0.00    -0.336 OA
HETATM    8  C8  UNL     1      -1.730   0.904  -1.591  1.00  0.00     0.087 C 
HETATM    9  C9  UNL     1      -1.511   0.165  -2.923  1.00  0.00     0.048 C 
HETATM   10  C10 UNL     1      -1.576   2.415  -1.841  1.00  0.00     0.048 C 
HETATM   11  C11 UNL     1      -0.662   0.400  -0.569  1.00  0.00     0.310 C 
HETATM   12  N1  UNL     1      -0.681   1.090   0.752  1.00  0.00     0.099 N 
HETATM   13  C22 UNL     1      -2.020   1.184   1.389  1.00  0.00     0.314 C 
ENDROOT
BRANCH  12  14
HETATM   14  C12 UNL     1       0.289   0.466   1.681  1.00  0.00     0.314 C 
BRANCH  14  15
HETATM   15  C13 UNL     1       1.709   0.665   1.206  1.00  0.00     0.009 A 
HETATM   16  C14 UNL     1       2.263   1.952   1.212  1.00  0.00     0.012 A 
HETATM   17  C15 UNL     1       3.564   2.164   0.755  1.00  0.00     0.010 A 
HETATM   18  C16 UNL     1       4.335   1.092   0.286  1.00  0.00    -0.021 A 
HETATM   19  C17 UNL     1       3.775  -0.203   0.239  1.00  0.00    -0.009 A 
HETATM   20  C21 UNL     1       5.717   1.357  -0.264  1.00  0.00     0.308 C 
HETATM   21  C18 UNL     1       2.469  -0.413   0.717  1.00  0.00     0.131 A 
HETATM   22  C19 UNL     1       4.595  -1.379  -0.231  1.00  0.00     0.072 C 
HETATM   23  F1  UNL     1       1.940  -1.665   0.696  1.00  0.00    -0.205 F 
HETATM   24  C20 UNL     1       5.841  -0.937  -1.007  1.00  0.00     0.274 C 
HETATM   25  N2  UNL     1       6.543   0.142  -0.304  1.00  0.00     0.087 N 
HETATM   26  H23 UNL     1       6.746  -0.162   0.678  1.00  0.00     0.316 HD
ENDBRANCH  14  15
ENDBRANCH  12  14
BRANCH   1  27
HETATM   27  O1  UNL     1      -4.845  -1.446  -1.652  1.00  0.00    -0.353 OA
HETATM   28  C1  UNL     1      -5.722  -2.498  -2.040  1.00  0.00     0.210 C 
ENDBRANCH   1  27
TORSDOF 3
