REMARK  3 active torsions:
REMARK  status: ('A' for Active; 'I' for Inactive)
REMARK    1  A    between atoms: C4_4  and  N1_5 
REMARK    2  A    between atoms: C7_8  and  C8_9 
REMARK    3  A    between atoms: C10_12  and  N3_13 
ROOT
HETATM    1  N1  UNL     1       1.566  -0.038  -0.651  1.00  0.00    -0.259 N 
HETATM    2  C5  UNL     1       0.974  -1.353  -0.938  1.00  0.00     0.157 C 
HETATM    3  C6  UNL     1      -0.518  -1.275  -1.303  1.00  0.00     0.032 C 
HETATM    4  C7  UNL     1      -1.410  -0.773  -0.133  1.00  0.00     0.036 C 
HETATM    5  C13 UNL     1      -1.378   0.793   0.003  1.00  0.00     0.044 A 
HETATM    6  C14 UNL     1       0.045   1.348   0.228  1.00  0.00     0.215 C 
HETATM    7  O1  UNL     1       0.844   1.090  -0.906  1.00  0.00    -0.277 OA
HETATM    8  C15 UNL     1      -2.162   1.591  -1.047  1.00  0.00     0.286 A 
HETATM    9  N4  UNL     1      -3.119   2.110  -0.058  1.00  0.00     0.086 N 
HETATM   10  C16 UNL     1      -3.004   3.570   0.097  1.00  0.00     0.310 C 
HETATM   11  C17 UNL     1      -2.385   1.391   0.996  1.00  0.00     0.286 A 
ENDROOT
BRANCH   4  12
HETATM   12  C8  UNL     1      -2.812  -1.384  -0.213  1.00  0.00    -0.035 A 
HETATM   13  C9  UNL     1      -3.513  -1.504  -1.430  1.00  0.00     0.126 A 
HETATM   14  N2  UNL     1      -4.753  -2.059  -1.460  1.00  0.00    -0.243 NA
HETATM   15  C10 UNL     1      -5.363  -2.522  -0.337  1.00  0.00     0.120 A 
HETATM   16  C11 UNL     1      -4.702  -2.445   0.892  1.00  0.00     0.050 A 
HETATM   17  C12 UNL     1      -3.426  -1.883   0.949  1.00  0.00     0.013 A 
BRANCH  15  18
HETATM   18  N3  UNL     1      -6.669  -3.092  -0.423  1.00  0.00    -0.384 N 
HETATM   19  H11 UNL     1      -7.158  -3.151  -1.344  1.00  0.00     0.157 HD
HETATM   20  H12 UNL     1      -7.154  -3.456   0.427  1.00  0.00     0.157 HD
ENDBRANCH  15  18
ENDBRANCH   4  12
BRANCH   1  21
HETATM   21  C4  UNL     1       2.937   0.094  -0.197  1.00  0.00     0.058 A 
HETATM   22  C3  UNL     1       3.462   1.368   0.092  1.00  0.00     0.038 A 
HETATM   23  C2  UNL     1       4.789   1.523   0.518  1.00  0.00    -0.059 A 
HETATM   24  C1  UNL     1       5.320   2.886   0.851  1.00  0.00     0.048 C 
HETATM   25  C21 UNL     1       5.595   0.391   0.694  1.00  0.00     0.013 A 
HETATM   26  C19 UNL     1       5.090  -0.887   0.427  1.00  0.00    -0.059 A 
HETATM   27  C18 UNL     1       3.773  -1.031  -0.035  1.00  0.00     0.038 A 
HETATM   28  C20 UNL     1       5.975  -2.091   0.567  1.00  0.00     0.048 C 
ENDBRANCH   1  21
TORSDOF 3
