REMARK  4 active torsions:
REMARK  status: ('A' for Active; 'I' for Inactive)
REMARK    1  A    between atoms: C2_2  and  C3_3 
REMARK    2  A    between atoms: C2_2  and  C11_13 
REMARK    3  A    between atoms: C3_3  and  N1_4 
REMARK    4  A    between atoms: N1_4  and  C5_6 
REMARK       I    between atoms: C11_13  and  N2_15 
ROOT
HETATM    1  C1  UNL     1       0.080   2.241   2.479  1.00  0.00     0.021 C 
HETATM    2  C2  UNL     1       0.080   0.933   1.682  1.00  0.00     0.092 C 
ENDROOT
BRANCH   2   3
HETATM    3  C3  UNL     1       1.456   0.240   1.734  1.00  0.00     0.136 C 
BRANCH   3   4
HETATM    4  N1  UNL     1       2.405   0.908   0.832  1.00  0.00    -0.382 N 
HETATM    5  C4  UNL     1       3.527   1.690   1.355  1.00  0.00     0.150 C 
BRANCH   4   6
HETATM    6  C5  UNL     1       2.270   0.733  -0.588  1.00  0.00     0.069 A 
HETATM    7  C6  UNL     1       2.435  -0.540  -1.158  1.00  0.00     0.032 A 
HETATM    8  C7  UNL     1       2.247  -0.727  -2.531  1.00  0.00     0.002 A 
HETATM    9  C8  UNL     1       1.891   0.353  -3.342  1.00  0.00     0.003 A 
HETATM   10  C9  UNL     1       1.727   1.624  -2.782  1.00  0.00     0.044 A 
HETATM   11  C10 UNL     1       1.915   1.817  -1.409  1.00  0.00     0.142 A 
HETATM   12  F1  UNL     1       1.713   3.047  -0.876  1.00  0.00    -0.204 F 
ENDBRANCH   4   6
ENDBRANCH   3   4
ENDBRANCH   2   3
BRANCH   2  13
HETATM   13  C11 UNL     1      -0.993  -0.002   2.189  1.00  0.00     0.225 C 
HETATM   14  O1  UNL     1      -0.961  -0.383   3.392  1.00  0.00    -0.273 OA
HETATM   15  N2  UNL     1      -1.996  -0.538   1.302  1.00  0.00    -0.352 N 
HETATM   16  C12 UNL     1      -2.606   0.311   0.264  1.00  0.00     0.126 C 
HETATM   17  C17 UNL     1      -2.366  -1.957   1.448  1.00  0.00     0.131 C 
HETATM   18  C13 UNL     1      -2.054   0.008  -1.149  1.00  0.00     0.026 C 
HETATM   19  C14 UNL     1      -1.244  -1.296  -1.259  1.00  0.00     0.081 C 
HETATM   20  C15 UNL     1      -2.074  -2.579  -1.048  1.00  0.00     0.245 C 
HETATM   21  F2  UNL     1      -2.846  -2.800  -2.177  1.00  0.00    -0.206 F 
HETATM   22  F3  UNL     1      -1.196  -3.644  -0.919  1.00  0.00    -0.206 F 
HETATM   23  C16 UNL     1      -3.007  -2.556   0.181  1.00  0.00     0.099 C 
ENDBRANCH   2  13
TORSDOF 4
