REMARK  1 active torsions:
REMARK  status: ('A' for Active; 'I' for Inactive)
REMARK       I    between atoms: N1_8  and  C8_9 
REMARK    1  A    between atoms: C8_9  and  C9_11 
ROOT
HETATM    1  C1  UNL     1      -0.451   3.905   2.551  1.00  0.00     0.048 C 
HETATM    2  C2  UNL     1      -0.852   2.784   1.639  1.00  0.00    -0.060 A 
HETATM    3  C3  UNL     1      -1.897   2.956   0.724  1.00  0.00     0.007 A 
HETATM    4  C4  UNL     1      -2.289   1.903  -0.104  1.00  0.00     0.015 A 
HETATM    5  C5  UNL     1      -1.655   0.649  -0.025  1.00  0.00     0.002 A 
HETATM    6  C6  UNL     1      -0.630   0.465   0.927  1.00  0.00     0.054 A 
HETATM    7  C7  UNL     1      -0.238   1.530   1.753  1.00  0.00     0.037 A 
HETATM    8  N1  UNL     1      -0.035  -0.826   1.111  1.00  0.00    -0.277 N 
HETATM    9  C8  UNL     1       1.398  -1.015   1.077  1.00  0.00     0.266 C 
HETATM   10  O1  UNL     1       1.911  -2.019   1.643  1.00  0.00    -0.267 OA
HETATM   11  C19 UNL     1      -0.916  -1.862   1.562  1.00  0.00     0.054 A 
HETATM   12  C20 UNL     1      -0.779  -2.381   2.860  1.00  0.00     0.031 A 
HETATM   13  C21 UNL     1      -1.687  -3.323   3.345  1.00  0.00     0.002 A 
HETATM   14  C22 UNL     1      -2.750  -3.742   2.545  1.00  0.00     0.001 A 
HETATM   15  C23 UNL     1      -2.904  -3.224   1.258  1.00  0.00     0.014 A 
HETATM   16  C24 UNL     1      -1.992  -2.278   0.749  1.00  0.00     0.002 A 
HETATM   17  C25 UNL     1      -2.133  -1.791  -0.652  1.00  0.00    -0.013 A 
HETATM   18  C26 UNL     1      -2.415  -2.734  -1.660  1.00  0.00     0.013 A 
HETATM   19  C27 UNL     1      -2.565  -2.342  -2.989  1.00  0.00     0.001 A 
HETATM   20  C28 UNL     1      -2.432  -1.003  -3.340  1.00  0.00     0.001 A 
HETATM   21  C29 UNL     1      -2.148  -0.051  -2.363  1.00  0.00     0.013 A 
HETATM   22  C30 UNL     1      -1.993  -0.419  -1.010  1.00  0.00    -0.013 A 
ENDROOT
BRANCH   9  23
HETATM   23  C9  UNL     1       2.285  -0.066   0.359  1.00  0.00     0.066 C 
HETATM   24  C10 UNL     1       3.520   0.219   0.857  1.00  0.00     0.020 C 
HETATM   25  C11 UNL     1       4.629   1.052   0.252  1.00  0.00     0.004 C 
HETATM   26  C12 UNL     1       4.647   1.734  -0.916  1.00  0.00     0.037 C 
HETATM   27  C13 UNL     1       3.467   1.839  -1.769  1.00  0.00     0.076 C 
HETATM   28  C14 UNL     1       3.496   1.657  -3.091  1.00  0.00     0.037 C 
HETATM   29  O2  UNL     1       2.257   1.818  -1.140  1.00  0.00    -0.310 OA
HETATM   30  C15 UNL     1       2.275   1.202  -3.821  1.00  0.00     0.003 C 
HETATM   31  C16 UNL     1       1.304   0.404  -3.301  1.00  0.00     0.003 C 
HETATM   32  C17 UNL     1       1.288  -0.141  -1.911  1.00  0.00     0.038 C 
HETATM   33  C18 UNL     1       1.833   0.544  -0.898  1.00  0.00     0.091 C 
ENDBRANCH   9  23
TORSDOF 1
