REMARK  3 active torsions:
REMARK  status: ('A' for Active; 'I' for Inactive)
REMARK    1  A    between atoms: O1_2  and  C2_3 
REMARK       I    between atoms: N1_9  and  C8_10 
REMARK       I    between atoms: C8_10  and  N2_12 
REMARK    2  A    between atoms: N2_12  and  C9_13 
REMARK    3  A    between atoms: C18_24  and  O3_25 
ROOT
HETATM    1  C9  UNL     1      -0.839   1.260   0.382  1.00  0.00     0.087 A 
HETATM    2  C10 UNL     1      -2.120   1.101   1.194  1.00  0.00     0.035 A 
HETATM    3  C11 UNL     1      -2.756   0.271   0.056  1.00  0.00    -0.023 A 
HETATM    4  C12 UNL     1      -1.479   0.514  -0.782  1.00  0.00     0.035 A 
HETATM    5  C13 UNL     1      -2.963  -1.231   0.427  1.00  0.00     0.042 C 
HETATM    6  C14 UNL     1      -4.348  -1.757   0.011  1.00  0.00     0.128 C 
HETATM    7  C15 UNL     1      -4.663  -1.409  -1.473  1.00  0.00     0.111 C 
HETATM    8  C16 UNL     1      -4.493   0.098  -1.806  1.00  0.00     0.252 C 
HETATM    9  F1  UNL     1      -5.688   0.609  -2.286  1.00  0.00    -0.206 F 
HETATM   10  F2  UNL     1      -3.563   0.232  -2.825  1.00  0.00    -0.206 F 
HETATM   11  C17 UNL     1      -4.032   0.919  -0.569  1.00  0.00     0.097 C 
HETATM   12  C18 UNL     1      -5.176   1.067   0.489  1.00  0.00     0.152 C 
HETATM   13  C19 UNL     1      -6.049  -0.195   0.659  1.00  0.00     0.200 C 
HETATM   14  O4  UNL     1      -5.321  -1.366   0.979  1.00  0.00    -0.383 OA
ENDROOT
BRANCH   1  15
HETATM   15  N2  UNL     1       0.296   0.522   0.945  1.00  0.00    -0.338 N 
HETATM   16  C8  UNL     1       1.571   0.500   0.287  1.00  0.00     0.323 C 
HETATM   17  N1  UNL     1       2.596  -0.406   0.731  1.00  0.00    -0.299 N 
HETATM   18  O2  UNL     1       1.777   1.259  -0.699  1.00  0.00    -0.247 OA
HETATM   19  C6  UNL     1       3.960  -0.416   0.322  1.00  0.00     0.048 A 
HETATM   20  C20 UNL     1       2.321  -1.654   1.450  1.00  0.00     0.138 A 
HETATM   21  C5  UNL     1       4.576  -1.580   0.691  1.00  0.00    -0.029 A 
HETATM   22  C7  UNL     1       4.672   0.609  -0.317  1.00  0.00     0.067 A 
HETATM   23  C4  UNL     1       5.921  -1.811   0.412  1.00  0.00     0.012 A 
HETATM   24  C21 UNL     1       3.629  -2.476   1.412  1.00  0.00     0.061 A 
HETATM   25  C3  UNL     1       6.651  -0.812  -0.251  1.00  0.00     0.037 A 
HETATM   26  C2  UNL     1       6.031   0.410  -0.614  1.00  0.00     0.070 A 
HETATM   27  H7  UNL     1       0.190   0.017   1.856  1.00  0.00     0.164 HD
BRANCH  26  28
HETATM   28  O1  UNL     1       6.727   1.443  -1.261  1.00  0.00    -0.356 OA
HETATM   29  C1  UNL     1       8.103   1.383  -1.621  1.00  0.00     0.210 C 
ENDBRANCH  26  28
ENDBRANCH   1  15
BRANCH  12  30
HETATM   30  O3  UNL     1      -6.015   2.134   0.126  1.00  0.00    -0.393 OA
HETATM   31  H20 UNL     1      -5.528   2.973   0.341  1.00  0.00     0.210 HD
ENDBRANCH  12  30
TORSDOF 3
