REMARK  1 active torsions:
REMARK  status: ('A' for Active; 'I' for Inactive)
REMARK    1  A    between atoms: C8_8  and  C9_9 
ROOT
HETATM    1  C1  UNL     1      -0.022  -3.615   2.512  1.00  0.00     0.048 C 
HETATM    2  C2  UNL     1      -0.827  -2.539   1.844  1.00  0.00    -0.061 A 
HETATM    3  C3  UNL     1      -2.215  -2.666   1.731  1.00  0.00     0.007 A 
HETATM    4  C4  UNL     1      -2.963  -1.672   1.103  1.00  0.00     0.013 A 
HETATM    5  C5  UNL     1      -2.337  -0.542   0.548  1.00  0.00    -0.017 A 
HETATM    6  C6  UNL     1      -0.921  -0.436   0.595  1.00  0.00    -0.037 A 
HETATM    7  C7  UNL     1      -0.186  -1.431   1.275  1.00  0.00     0.015 A 
HETATM    8  C8  UNL     1      -0.214   0.780   0.007  1.00  0.00     0.067 C 
HETATM    9  C19 UNL     1      -0.206   1.935   1.026  1.00  0.00     0.160 C 
HETATM   10  S1  UNL     1      -1.868   2.399   1.517  1.00  0.00     0.177 S 
HETATM   11  O1  UNL     1      -2.202   1.750   2.830  1.00  0.00    -0.223 OA
HETATM   12  O2  UNL     1      -1.914   3.891   1.693  1.00  0.00    -0.223 OA
HETATM   13  C20 UNL     1      -3.056   1.886   0.308  1.00  0.00     0.070 A 
HETATM   14  C21 UNL     1      -3.883   2.847  -0.295  1.00  0.00     0.027 A 
HETATM   15  C22 UNL     1      -4.835   2.468  -1.243  1.00  0.00     0.044 A 
HETATM   16  C23 UNL     1      -4.973   1.127  -1.600  1.00  0.00     0.117 A 
HETATM   17  F1  UNL     1      -5.898   0.764  -2.522  1.00  0.00    -0.206 F 
HETATM   18  C24 UNL     1      -4.158   0.159  -1.010  1.00  0.00     0.056 A 
HETATM   19  C25 UNL     1      -3.191   0.521  -0.055  1.00  0.00    -0.001 A 
ENDROOT
BRANCH   8  20
HETATM   20  C9  UNL     1       1.158   0.443  -0.570  1.00  0.00    -0.048 A 
HETATM   21  C10 UNL     1       1.224  -0.140  -1.849  1.00  0.00     0.009 A 
HETATM   22  C11 UNL     1       2.450  -0.503  -2.410  1.00  0.00     0.013 A 
HETATM   23  C12 UNL     1       3.639  -0.303  -1.697  1.00  0.00    -0.026 A 
HETATM   24  C13 UNL     1       4.876  -0.667  -2.252  1.00  0.00     0.012 A 
HETATM   25  C17 UNL     1       3.591   0.265  -0.402  1.00  0.00    -0.025 A 
HETATM   26  C14 UNL     1       6.055  -0.470  -1.527  1.00  0.00     0.001 A 
HETATM   27  C15 UNL     1       6.008   0.089  -0.248  1.00  0.00     0.001 A 
HETATM   28  C16 UNL     1       4.782   0.456   0.316  1.00  0.00     0.012 A 
HETATM   29  C18 UNL     1       2.355   0.629   0.154  1.00  0.00     0.020 A 
ENDBRANCH   8  20
TORSDOF 1
