REMARK  4 active torsions:
REMARK  status: ('A' for Active; 'I' for Inactive)
REMARK    1  A    between atoms: C2_2  and  C3_3 
REMARK    2  A    between atoms: C5_5  and  N1_6 
REMARK    3  A    between atoms: C15_17  and  C16_18 
REMARK    4  A    between atoms: C20_23  and  N3_24 
ROOT
HETATM    1  C3  UNL     1      -1.541   0.478  -0.533  1.00  0.00    -0.044 A 
HETATM    2  C4  UNL     1      -0.164   0.248  -0.377  1.00  0.00     0.037 A 
HETATM    3  C5  UNL     1       0.307  -0.736   0.504  1.00  0.00     0.030 A 
HETATM    4  C13 UNL     1      -0.612  -1.501   1.234  1.00  0.00     0.030 A 
HETATM    5  C14 UNL     1      -1.983  -1.290   1.084  1.00  0.00     0.017 A 
HETATM    6  C15 UNL     1      -2.461  -0.307   0.204  1.00  0.00     0.001 A 
ENDROOT
BRANCH   3   7
HETATM    7  N1  UNL     1       1.721  -0.964   0.644  1.00  0.00    -0.379 N 
HETATM    8  C6  UNL     1       2.311  -1.013   1.992  1.00  0.00     0.149 C 
HETATM    9  C7  UNL     1       3.548  -0.105   2.114  1.00  0.00     0.188 C 
HETATM   10  O1  UNL     1       3.641   0.801   1.026  1.00  0.00    -0.379 OA
HETATM   11  C8  UNL     1       4.346   0.279  -0.100  1.00  0.00     0.055 C 
HETATM   12  C9  UNL     1       5.869   0.389   0.136  1.00  0.00     0.045 C 
HETATM   13  C10 UNL     1       3.998   1.186  -1.296  1.00  0.00     0.045 C 
HETATM   14  C11 UNL     1       3.974  -1.198  -0.451  1.00  0.00     0.057 C 
HETATM   15  C12 UNL     1       2.460  -1.465  -0.527  1.00  0.00     0.126 C 
ENDBRANCH   3   7
BRANCH   1  16
HETATM   16  C2  UNL     1      -1.989   1.551  -1.501  1.00  0.00     0.035 C 
HETATM   17  C1  UNL     1      -2.000   1.022  -2.932  1.00  0.00     0.010 C 
ENDBRANCH   1  16
BRANCH   6  18
HETATM   18  C16 UNL     1      -3.921  -0.139   0.059  1.00  0.00     0.093 A 
HETATM   19  N2  UNL     1      -4.508  -0.529  -1.106  1.00  0.00    -0.258 NA
HETATM   20  C17 UNL     1      -5.846  -0.418  -1.314  1.00  0.00     0.117 A 
HETATM   21  C18 UNL     1      -6.666   0.105  -0.315  1.00  0.00     0.022 A 
HETATM   22  C19 UNL     1      -6.097   0.517   0.890  1.00  0.00     0.033 A 
HETATM   23  C20 UNL     1      -4.716   0.403   1.093  1.00  0.00     0.055 A 
BRANCH  23  24
HETATM   24  N3  UNL     1      -4.142   0.862   2.325  1.00  0.00    -0.397 N 
HETATM   25  H26 UNL     1      -3.113   0.851   2.492  1.00  0.00     0.156 HD
HETATM   26  H27 UNL     1      -4.751   1.256   3.077  1.00  0.00     0.156 HD
ENDBRANCH  23  24
ENDBRANCH   6  18
TORSDOF 4
