REMARK  2 active torsions:
REMARK  status: ('A' for Active; 'I' for Inactive)
REMARK    1  A    between atoms: C5_6  and  C6_7 
REMARK       I    between atoms: C6_7  and  N1_9 
REMARK       I    between atoms: N2_15  and  C12_16 
REMARK    2  A    between atoms: C12_16  and  C13_18 
ROOT
HETATM    1  C6  UNL     1       2.611   0.334   1.519  1.00  0.00     0.257 C 
HETATM    2  O2  UNL     1       2.079   1.120   2.348  1.00  0.00    -0.267 OA
HETATM    3  N1  UNL     1       1.846  -0.770   0.993  1.00  0.00    -0.337 N 
HETATM    4  C7  UNL     1       2.118  -1.454  -0.265  1.00  0.00     0.089 C 
HETATM    5  C8  UNL     1       1.217  -2.703  -0.248  1.00  0.00     0.027 C 
HETATM    6  C9  UNL     1       0.304  -2.556   0.971  1.00  0.00     0.029 C 
HETATM    7  C10 UNL     1       0.526  -1.133   1.482  1.00  0.00     0.106 C 
HETATM    8  C11 UNL     1      -0.533  -0.162   0.916  1.00  0.00     0.151 C 
HETATM    9  N2  UNL     1      -0.489  -0.103  -0.560  1.00  0.00    -0.346 N 
HETATM   10  C12 UNL     1      -1.518  -0.718  -1.362  1.00  0.00     0.256 C 
HETATM   11  O3  UNL     1      -1.203  -1.300  -2.436  1.00  0.00    -0.267 OA
HETATM   12  C21 UNL     1       0.678   0.499  -1.223  1.00  0.00     0.128 C 
HETATM   13  C22 UNL     1       1.813  -0.521  -1.466  1.00  0.00     0.045 C 
ENDROOT
BRANCH  10  14
HETATM   14  C13 UNL     1      -2.943  -0.664  -0.973  1.00  0.00     0.066 A 
HETATM   15  C14 UNL     1      -3.805  -1.749  -1.240  1.00  0.00     0.020 A 
HETATM   16  C15 UNL     1      -5.163  -1.688  -0.873  1.00  0.00     0.002 A 
HETATM   17  C16 UNL     1      -5.678  -0.541  -0.248  1.00  0.00     0.010 A 
HETATM   18  C17 UNL     1      -4.814   0.527  -0.007  1.00  0.00    -0.022 A 
HETATM   19  C18 UNL     1      -3.496   0.470  -0.364  1.00  0.00     0.090 A 
HETATM   20  C20 UNL     1      -5.119   1.844   0.610  1.00  0.00     0.068 A 
HETATM   21  O4  UNL     1      -2.849   1.649  -0.058  1.00  0.00    -0.349 OA
HETATM   22  C19 UNL     1      -3.752   2.567   0.556  1.00  0.00     0.180 A 
ENDBRANCH  10  14
BRANCH   1  23
HETATM   23  C5  UNL     1       4.003   0.580   1.104  1.00  0.00     0.063 A 
HETATM   24  C2  UNL     1       4.590   1.805   0.836  1.00  0.00     0.064 A 
HETATM   25  C1  UNL     1       3.915   3.137   0.854  1.00  0.00     0.077 C 
HETATM   26  O1  UNL     1       5.863   1.635   0.564  1.00  0.00    -0.326 OA
HETATM   27  C3  UNL     1       6.145   0.354   0.647  1.00  0.00     0.143 A 
HETATM   28  C4  UNL     1       5.011  -0.356   0.989  1.00  0.00     0.044 A 
ENDBRANCH   1  23
TORSDOF 2
