REMARK  6 active torsions:
REMARK  status: ('A' for Active; 'I' for Inactive)
REMARK       I    between atoms: C1_2  and  N1_3 
REMARK    1  A    between atoms: C1_2  and  C26_31 
REMARK       I    between atoms: N1_3  and  C2_4 
REMARK    2  A    between atoms: C2_4  and  C3_6 
REMARK    3  A    between atoms: C5_8  and  C25_30 
REMARK    4  A    between atoms: C6_9  and  C8_13 
REMARK    5  A    between atoms: C13_18  and  C14_19 
REMARK    6  A    between atoms: C19_24  and  C20_25 
ROOT
HETATM    1  C3  UNL     1      -1.877  -1.437   1.680  1.00  0.00     0.104 A 
HETATM    2  C4  UNL     1      -2.253  -0.283   0.978  1.00  0.00     0.048 A 
HETATM    3  C5  UNL     1      -3.522   0.277   1.171  1.00  0.00    -0.006 A 
HETATM    4  C6  UNL     1      -4.400  -0.303   2.106  1.00  0.00     0.054 A 
HETATM    5  C7  UNL     1      -3.984  -1.453   2.800  1.00  0.00     0.258 A 
HETATM    6  O3  UNL     1      -4.753  -2.000   3.637  1.00  0.00    -0.267 OA
HETATM    7  N2  UNL     1      -2.753  -1.988   2.571  1.00  0.00    -0.318 N 
HETATM    8  H3  UNL     1      -2.481  -2.849   3.096  1.00  0.00     0.169 HD
ENDROOT
BRANCH   1   9
HETATM    9  C2  UNL     1      -0.530  -2.037   1.497  1.00  0.00     0.275 C 
HETATM   10  N1  UNL     1       0.253  -1.769   0.321  1.00  0.00    -0.288 N 
HETATM   11  C1  UNL     1       1.672  -1.983   0.250  1.00  0.00     0.259 C 
HETATM   12  H1  UNL     1      -0.211  -1.348  -0.514  1.00  0.00     0.172 HD
HETATM   13  O1  UNL     1       2.282  -2.544   1.202  1.00  0.00    -0.267 OA
HETATM   14  O2  UNL     1      -0.075  -2.800   2.393  1.00  0.00    -0.266 OA
BRANCH  11  15
HETATM   15  C26 UNL     1       2.424  -1.553  -0.949  1.00  0.00     0.039 A 
HETATM   16  C27 UNL     1       1.967  -1.992  -2.197  1.00  0.00     0.017 A 
HETATM   17  C28 UNL     1       2.680  -1.701  -3.352  1.00  0.00     0.002 A 
HETATM   18  C29 UNL     1       3.853  -0.958  -3.279  1.00  0.00     0.013 A 
HETATM   19  C30 UNL     1       4.329  -0.445  -2.051  1.00  0.00    -0.018 A 
HETATM   20  C31 UNL     1       3.597  -0.746  -0.871  1.00  0.00    -0.031 A 
HETATM   21  C45 UNL     1       5.589   0.386  -2.079  1.00  0.00    -0.014 C 
HETATM   22  C32 UNL     1       4.124  -0.290   0.455  1.00  0.00     0.045 C 
HETATM   23  C33 UNL     1       5.275  -1.215   0.880  1.00  0.00     0.044 C 
HETATM   24  C34 UNL     1       6.515  -0.403   1.050  1.00  0.00    -0.047 A 
HETATM   25  C35 UNL     1       6.957  -0.127   2.359  1.00  0.00     0.008 A 
HETATM   26  C39 UNL     1       7.162   0.197  -0.062  1.00  0.00    -0.019 A 
HETATM   27  C36 UNL     1       8.021   0.740   2.584  1.00  0.00     0.001 A 
HETATM   28  C37 UNL     1       8.646   1.358   1.506  1.00  0.00     0.001 A 
HETATM   29  C38 UNL     1       8.220   1.098   0.202  1.00  0.00     0.013 A 
HETATM   30  C40 UNL     1       6.810  -0.084  -1.502  1.00  0.00    -0.014 C 
HETATM   31  C41 UNL     1       7.927  -0.184  -2.359  1.00  0.00     0.013 C 
HETATM   32  C42 UNL     1       7.961   0.516  -3.566  1.00  0.00     0.001 C 
HETATM   33  C43 UNL     1       6.875   1.303  -3.936  1.00  0.00     0.001 C 
HETATM   34  C44 UNL     1       5.695   1.248  -3.194  1.00  0.00     0.013 C 
ENDBRANCH  11  15
ENDBRANCH   1   9
BRANCH   3  35
HETATM   35  C25 UNL     1      -3.896   1.483   0.396  1.00  0.00    -0.014 A 
HETATM   36  C20 UNL     1      -4.926   1.446  -0.573  1.00  0.00    -0.014 A 
HETATM   37  C21 UNL     1      -5.208   2.597  -1.327  1.00  0.00     0.013 A 
HETATM   38  C22 UNL     1      -4.483   3.773  -1.120  1.00  0.00     0.001 A 
HETATM   39  C23 UNL     1      -3.469   3.809  -0.163  1.00  0.00     0.001 A 
HETATM   40  C24 UNL     1      -3.170   2.669   0.586  1.00  0.00     0.013 A 
BRANCH  36  41
HETATM   41  C19 UNL     1      -5.692   0.207  -0.846  1.00  0.00    -0.014 A 
HETATM   42  C14 UNL     1      -6.579  -0.339   0.111  1.00  0.00    -0.014 A 
HETATM   43  C15 UNL     1      -7.321  -1.489  -0.208  1.00  0.00     0.013 A 
HETATM   44  C16 UNL     1      -7.176  -2.100  -1.455  1.00  0.00     0.001 A 
HETATM   45  C17 UNL     1      -6.298  -1.564  -2.399  1.00  0.00     0.001 A 
HETATM   46  C18 UNL     1      -5.564  -0.414  -2.100  1.00  0.00     0.013 A 
BRANCH  42  47
HETATM   47  C13 UNL     1      -6.765   0.288   1.438  1.00  0.00    -0.014 A 
HETATM   48  C8  UNL     1      -5.722   0.307   2.393  1.00  0.00    -0.009 A 
HETATM   49  C9  UNL     1      -5.943   0.899   3.650  1.00  0.00     0.013 A 
HETATM   50  C10 UNL     1      -7.179   1.473   3.953  1.00  0.00     0.001 A 
HETATM   51  C11 UNL     1      -8.210   1.448   3.012  1.00  0.00     0.001 A 
HETATM   52  C12 UNL     1      -8.009   0.852   1.763  1.00  0.00     0.013 A 
ENDBRANCH  42  47
ENDBRANCH  36  41
ENDBRANCH   3  35
TORSDOF 6
