REMARK  4 active torsions:
REMARK  status: ('A' for Active; 'I' for Inactive)
REMARK    1  A    between atoms: S1_2  and  C2_5 
REMARK    2  A    between atoms: C2_5  and  C3_6 
REMARK    3  A    between atoms: C3_6  and  N1_7 
REMARK    4  A    between atoms: N2_12  and  C7_13 
ROOT
HETATM    1  N1  UNL     1      -0.454  -0.449   0.437  1.00  0.00    -0.314 N 
HETATM    2  C4  UNL     1       0.036   0.253   1.587  1.00  0.00     0.226 C 
HETATM    3  O3  UNL     1      -0.623   1.210   2.072  1.00  0.00    -0.273 OA
HETATM    4  C5  UNL     1       1.340  -0.151   2.207  1.00  0.00     0.123 C 
HETATM    5  C6  UNL     1       2.317  -0.612   1.124  1.00  0.00     0.140 C 
HETATM    6  N2  UNL     1       2.363   0.376   0.037  1.00  0.00    -0.325 N 
HETATM    7  C11 UNL     1       1.431   0.267  -1.064  1.00  0.00     0.063 A 
HETATM    8  C12 UNL     1       1.889   0.528  -2.369  1.00  0.00     0.032 A 
HETATM    9  C13 UNL     1       1.021   0.462  -3.459  1.00  0.00     0.002 A 
HETATM   10  C14 UNL     1      -0.318   0.136  -3.264  1.00  0.00     0.002 A 
HETATM   11  C15 UNL     1      -0.790  -0.146  -1.983  1.00  0.00     0.032 A 
HETATM   12  C16 UNL     1       0.068  -0.106  -0.869  1.00  0.00     0.064 A 
ENDROOT
BRANCH   1  13
HETATM   13  C3  UNL     1      -1.073  -1.768   0.651  1.00  0.00     0.157 C 
BRANCH  13  14
HETATM   14  C2  UNL     1      -2.600  -1.755   0.434  1.00  0.00     0.080 A 
HETATM   15  C17 UNL     1      -3.224  -3.148   0.522  1.00  0.00     0.029 A 
HETATM   16  C18 UNL     1      -3.165  -2.423  -0.813  1.00  0.00     0.029 A 
BRANCH  14  17
HETATM   17  S1  UNL     1      -3.601  -0.457   1.179  1.00  0.00     0.150 S 
HETATM   18  C1  UNL     1      -3.508   1.031   0.206  1.00  0.00     0.162 C 
HETATM   19  O1  UNL     1      -3.106  -0.180   2.570  1.00  0.00    -0.227 OA
HETATM   20  O2  UNL     1      -5.044  -0.874   1.253  1.00  0.00    -0.227 OA
ENDBRANCH  14  17
ENDBRANCH  13  14
ENDBRANCH   1  13
BRANCH   6  21
HETATM   21  C7  UNL     1       3.157   1.576   0.174  1.00  0.00     0.149 A 
HETATM   22  C8  UNL     1       4.112   1.825   1.145  1.00  0.00     0.058 A 
HETATM   23  C9  UNL     1       4.583   3.093   0.881  1.00  0.00     0.029 A 
HETATM   24  C10 UNL     1       3.890   3.540  -0.225  1.00  0.00     0.144 A 
HETATM   25  O4  UNL     1       3.047   2.615  -0.622  1.00  0.00    -0.306 OA
ENDBRANCH   6  21
TORSDOF 4
