REMARK  1 active torsions:
REMARK  status: ('A' for Active; 'I' for Inactive)
REMARK    1  A    between atoms: O1_1  and  C1_2 
ROOT
HETATM    1  C1  UNL     1       3.234  -0.165   1.116  1.00  0.00     0.072 A 
HETATM    2  C2  UNL     1       3.993   0.997   0.971  1.00  0.00     0.037 A 
HETATM    3  C3  UNL     1       3.389   2.192   0.609  1.00  0.00     0.004 A 
HETATM    4  C4  UNL     1       2.015   2.243   0.396  1.00  0.00     0.013 A 
HETATM    5  C5  UNL     1       1.197   1.105   0.584  1.00  0.00    -0.016 A 
HETATM    6  C6  UNL     1       1.819  -0.111   0.975  1.00  0.00    -0.014 A 
HETATM    7  C7  UNL     1       0.989  -1.349   1.098  1.00  0.00     0.047 C 
HETATM    8  C8  UNL     1       0.722  -1.907  -0.308  1.00  0.00     0.044 C 
HETATM    9  C9  UNL     1      -0.751  -1.943  -0.550  1.00  0.00    -0.047 A 
HETATM   10  C10 UNL     1      -1.401  -3.191  -0.512  1.00  0.00     0.008 A 
HETATM   11  C11 UNL     1      -2.787  -3.276  -0.600  1.00  0.00     0.001 A 
HETATM   12  C12 UNL     1      -3.547  -2.117  -0.701  1.00  0.00     0.001 A 
HETATM   13  C13 UNL     1      -2.921  -0.871  -0.734  1.00  0.00     0.013 A 
HETATM   14  C14 UNL     1      -1.511  -0.750  -0.681  1.00  0.00    -0.019 A 
HETATM   15  C15 UNL     1      -0.918   0.634  -0.778  1.00  0.00    -0.014 C 
HETATM   16  C16 UNL     1      -1.574   1.481  -1.698  1.00  0.00     0.013 C 
HETATM   17  C17 UNL     1      -1.943   2.775  -1.328  1.00  0.00     0.001 C 
HETATM   18  C18 UNL     1      -1.645   3.240  -0.050  1.00  0.00     0.001 C 
HETATM   19  C19 UNL     1      -0.826   2.482   0.787  1.00  0.00     0.013 C 
HETATM   20  C20 UNL     1      -0.284   1.258   0.340  1.00  0.00    -0.014 C 
ENDROOT
BRANCH   1  21
HETATM   21  O1  UNL     1       3.931  -1.350   1.374  1.00  0.00    -0.360 OA
HETATM   22  H1  UNL     1       3.522  -2.272   1.339  1.00  0.00     0.217 HD
ENDBRANCH   1  21
TORSDOF 1
