REMARK  4 active torsions:
REMARK  status: ('A' for Active; 'I' for Inactive)
REMARK    1  A    between atoms: C5_5  and  C6_6 
REMARK       I    between atoms: C6_6  and  N1_8 
REMARK    2  A    between atoms: N1_8  and  C7_9 
REMARK    3  A    between atoms: C10_12  and  N2_13 
REMARK       I    between atoms: N3_17  and  C14_18 
REMARK    4  A    between atoms: C14_18  and  C15_20 
ROOT
HETATM    1  C7  UNL     1      -3.391   0.104   1.227  1.00  0.00     0.035 A 
HETATM    2  C8  UNL     1      -2.685   0.229   0.018  1.00  0.00     0.032 A 
HETATM    3  C9  UNL     1      -1.303   0.431   0.024  1.00  0.00     0.031 A 
HETATM    4  C10 UNL     1      -0.596   0.499   1.236  1.00  0.00     0.030 A 
HETATM    5  C22 UNL     1      -1.300   0.353   2.443  1.00  0.00     0.031 A 
HETATM    6  C23 UNL     1      -2.683   0.150   2.436  1.00  0.00     0.032 A 
ENDROOT
BRANCH   4   7
HETATM    7  N2  UNL     1       0.832   0.705   1.241  1.00  0.00    -0.379 N 
HETATM    8  C11 UNL     1       1.407   1.801   0.444  1.00  0.00     0.124 C 
HETATM    9  C12 UNL     1       2.091   1.292  -0.836  1.00  0.00     0.040 C 
HETATM   10  C13 UNL     1       2.820  -0.045  -0.664  1.00  0.00     0.127 C 
HETATM   11  N3  UNL     1       3.716  -0.012   0.505  1.00  0.00    -0.350 N 
HETATM   12  C14 UNL     1       5.134   0.181   0.329  1.00  0.00     0.224 C 
HETATM   13  C20 UNL     1       3.192   0.016   1.884  1.00  0.00     0.145 C 
HETATM   14  O2  UNL     1       5.753   0.959   1.107  1.00  0.00    -0.273 OA
HETATM   15  C21 UNL     1       1.675  -0.241   2.001  1.00  0.00     0.143 C 
BRANCH  12  16
HETATM   16  C15 UNL     1       5.897  -0.527  -0.768  1.00  0.00     0.078 C 
HETATM   17  C16 UNL     1       6.273   0.409  -1.912  1.00  0.00     0.014 C 
HETATM   18  C17 UNL     1       7.538  -0.180  -2.532  1.00  0.00     0.001 C 
HETATM   19  C18 UNL     1       8.073  -1.225  -1.553  1.00  0.00     0.001 C 
HETATM   20  C19 UNL     1       7.222  -1.115  -0.296  1.00  0.00     0.014 C 
ENDBRANCH  12  16
ENDBRANCH   4   7
BRANCH   1  21
HETATM   21  N1  UNL     1      -4.810  -0.128   1.248  1.00  0.00    -0.322 N 
HETATM   22  C6  UNL     1      -5.721   0.399   0.269  1.00  0.00     0.272 C 
HETATM   23  O1  UNL     1      -5.373   1.364  -0.464  1.00  0.00    -0.266 OA
HETATM   24  H6  UNL     1      -5.209  -0.622   2.077  1.00  0.00     0.169 HD
BRANCH  22  25
HETATM   25  C5  UNL     1      -7.086  -0.145   0.136  1.00  0.00     0.101 A 
HETATM   26  C4  UNL     1      -7.587  -1.264   0.782  1.00  0.00     0.037 A 
HETATM   27  C3  UNL     1      -8.886  -1.420   0.341  1.00  0.00     0.027 A 
HETATM   28  C2  UNL     1      -9.122  -0.386  -0.544  1.00  0.00     0.005 A 
HETATM   29  C1  UNL     1     -10.376  -0.190  -1.331  1.00  0.00     0.068 C 
HETATM   30  N4  UNL     1      -8.023   0.379  -0.678  1.00  0.00    -0.356 N 
HETATM   31  H30 UNL     1      -7.918   1.210  -1.302  1.00  0.00     0.166 HD
ENDBRANCH  22  25
ENDBRANCH   1  21
TORSDOF 4
