REMARK  3 active torsions:
REMARK  status: ('A' for Active; 'I' for Inactive)
REMARK    1  A    between atoms: C1_2  and  C2_3 
REMARK       I    between atoms: C1_2  and  N1_20 
REMARK    2  A    between atoms: C4_5  and  C5_6 
REMARK    3  A    between atoms: N1_20  and  C18_21 
ROOT
HETATM    1  O1  UNL     1      -1.310  -3.100   0.568  1.00  0.00    -0.267 OA
HETATM    2  C1  UNL     1      -1.769  -1.927   0.653  1.00  0.00     0.256 C 
HETATM    3  N1  UNL     1      -0.871  -0.830   0.894  1.00  0.00    -0.323 N 
HETATM    4  H11 UNL     1      -1.231  -0.012   1.436  1.00  0.00     0.169 HD
ENDROOT
BRANCH   3   5
HETATM    5  C18 UNL     1       0.525  -0.853   0.549  1.00  0.00     0.035 A 
HETATM    6  C19 UNL     1       0.993  -1.585  -0.547  1.00  0.00     0.030 A 
HETATM    7  C20 UNL     1       2.347  -1.572  -0.877  1.00  0.00     0.015 A 
HETATM    8  C21 UNL     1       3.286  -0.831  -0.124  1.00  0.00    -0.019 A 
HETATM    9  C22 UNL     1       2.799  -0.051   0.953  1.00  0.00    -0.045 A 
HETATM   10  C37 UNL     1       4.738  -0.933  -0.513  1.00  0.00    -0.014 C 
HETATM   11  C23 UNL     1       1.427  -0.066   1.272  1.00  0.00     0.037 A 
HETATM   12  C24 UNL     1       3.680   0.916   1.673  1.00  0.00     0.044 C 
HETATM   13  C25 UNL     1       3.985   2.104   0.746  1.00  0.00     0.044 C 
HETATM   14  C26 UNL     1       5.458   2.174   0.515  1.00  0.00    -0.047 A 
HETATM   15  C27 UNL     1       6.198   3.140   1.222  1.00  0.00     0.008 A 
HETATM   16  C31 UNL     1       6.128   1.208  -0.278  1.00  0.00    -0.019 A 
HETATM   17  C28 UNL     1       7.589   3.162   1.155  1.00  0.00     0.001 A 
HETATM   18  C29 UNL     1       8.261   2.207   0.403  1.00  0.00     0.001 A 
HETATM   19  C30 UNL     1       7.544   1.238  -0.299  1.00  0.00     0.013 A 
HETATM   20  C32 UNL     1       5.433   0.163  -1.111  1.00  0.00    -0.014 C 
HETATM   21  C33 UNL     1       6.021  -0.057  -2.375  1.00  0.00     0.013 C 
HETATM   22  C34 UNL     1       6.254  -1.354  -2.833  1.00  0.00     0.001 C 
HETATM   23  C35 UNL     1       5.894  -2.440  -2.041  1.00  0.00     0.001 C 
HETATM   24  C36 UNL     1       5.149  -2.233  -0.881  1.00  0.00     0.013 C 
ENDBRANCH   3   5
BRANCH   2  25
HETATM   25  C2  UNL     1      -3.232  -1.704   0.544  1.00  0.00     0.034 A 
HETATM   26  C3  UNL     1      -3.744  -0.428   0.259  1.00  0.00     0.030 A 
HETATM   27  C4  UNL     1      -5.125  -0.211   0.129  1.00  0.00    -0.014 A 
HETATM   28  C11 UNL     1      -6.023  -1.293   0.306  1.00  0.00    -0.015 A 
HETATM   29  C12 UNL     1      -7.423  -1.124   0.239  1.00  0.00     0.013 A 
HETATM   30  C16 UNL     1      -5.505  -2.585   0.580  1.00  0.00    -0.024 A 
HETATM   31  C13 UNL     1      -8.279  -2.214   0.412  1.00  0.00     0.001 A 
HETATM   32  C14 UNL     1      -7.760  -3.483   0.663  1.00  0.00     0.001 A 
HETATM   33  C15 UNL     1      -6.380  -3.671   0.750  1.00  0.00     0.012 A 
HETATM   34  C17 UNL     1      -4.121  -2.779   0.691  1.00  0.00     0.029 A 
BRANCH  27  35
HETATM   35  C5  UNL     1      -5.585   1.154  -0.213  1.00  0.00    -0.022 A 
HETATM   36  C6  UNL     1      -5.344   2.221   0.668  1.00  0.00     0.012 A 
HETATM   37  C7  UNL     1      -5.759   3.515   0.336  1.00  0.00     0.004 A 
HETATM   38  C8  UNL     1      -6.408   3.752  -0.879  1.00  0.00     0.042 A 
HETATM   39  C9  UNL     1      -6.639   2.697  -1.767  1.00  0.00     0.117 A 
HETATM   40  F1  UNL     1      -7.260   2.930  -2.949  1.00  0.00    -0.206 F 
HETATM   41  C10 UNL     1      -6.226   1.402  -1.438  1.00  0.00     0.054 A 
ENDBRANCH  27  35
ENDBRANCH   2  25
TORSDOF 3
