REMARK  3 active torsions:
REMARK  status: ('A' for Active; 'I' for Inactive)
REMARK    1  A    between atoms: N1_2  and  C3_4 
REMARK    2  A    between atoms: C5_6  and  C6_7 
REMARK    3  A    between atoms: C7_10  and  C8_11 
ROOT
HETATM    1  C6  UNL     1       0.788   0.375  -0.673  1.00  0.00     0.173 A 
HETATM    2  N2  UNL     1       0.790   1.507  -1.403  1.00  0.00    -0.126 NA
HETATM    3  N3  UNL     1      -0.413   1.602  -1.946  1.00  0.00    -0.126 NA
HETATM    4  C7  UNL     1      -1.109   0.532  -1.517  1.00  0.00     0.177 A 
HETATM    5  O2  UNL     1      -0.374  -0.228  -0.738  1.00  0.00    -0.276 OA
ENDROOT
BRANCH   4   6
HETATM    6  C8  UNL     1      -2.536   0.245  -1.904  1.00  0.00     0.100 C 
HETATM    7  C9  UNL     1      -3.456   1.476  -1.753  1.00  0.00     0.044 C 
HETATM    8  C10 UNL     1      -3.456   2.112  -0.356  1.00  0.00     0.169 C 
HETATM    9  O1  UNL     1      -4.093   1.284   0.595  1.00  0.00    -0.387 OA
HETATM   10  C11 UNL     1      -3.223   0.264   1.043  1.00  0.00     0.206 C 
HETATM   11  C12 UNL     1      -3.396  -0.975   0.200  1.00  0.00    -0.028 A 
HETATM   12  C13 UNL     1      -3.890  -2.147   0.803  1.00  0.00     0.010 A 
HETATM   13  C17 UNL     1      -3.084  -0.981  -1.185  1.00  0.00    -0.038 A 
HETATM   14  C14 UNL     1      -4.066  -3.311   0.055  1.00  0.00     0.001 A 
HETATM   15  C15 UNL     1      -3.755  -3.322  -1.303  1.00  0.00     0.001 A 
HETATM   16  C16 UNL     1      -3.265  -2.169  -1.918  1.00  0.00     0.008 A 
ENDBRANCH   4   6
BRANCH   1  17
HETATM   17  C5  UNL     1       1.938  -0.117   0.161  1.00  0.00     0.069 A 
HETATM   18  C4  UNL     1       3.326   0.263  -0.367  1.00  0.00     0.048 A 
HETATM   19  C3  UNL     1       3.560   1.101   0.898  1.00  0.00     0.223 A 
HETATM   20  C18 UNL     1       2.168   0.732   1.412  1.00  0.00     0.048 A 
BRANCH  19  21
HETATM   21  N1  UNL     1       4.663   0.669   1.800  1.00  0.00     0.084 N 
HETATM   22  C1  UNL     1       4.837  -0.790   1.967  1.00  0.00     0.309 C 
HETATM   23  C2  UNL     1       5.931   1.282   1.381  1.00  0.00     0.309 C 
ENDBRANCH  19  21
ENDBRANCH   1  17
TORSDOF 3
