REMARK  3 active torsions:
REMARK  status: ('A' for Active; 'I' for Inactive)
REMARK    1  A    between atoms: C2_2  and  N1_3 
REMARK       I    between atoms: N2_9  and  C8_10 
REMARK    2  A    between atoms: C8_10  and  C9_12 
REMARK    3  A    between atoms: C11_15  and  C12_16 
ROOT
HETATM    1  N1  UNL     1      -3.379  -0.198  -0.480  1.00  0.00     0.099 N 
HETATM    2  C3  UNL     1      -2.760   1.050  -0.012  1.00  0.00     0.225 C 
HETATM    3  C4  UNL     1      -1.899   0.699   1.212  1.00  0.00     0.038 C 
HETATM    4  C5  UNL     1      -1.679  -0.804   1.118  1.00  0.00     0.040 C 
HETATM    5  C6  UNL     1      -2.367  -1.218  -0.189  1.00  0.00     0.241 C 
HETATM    6  C7  UNL     1      -1.395  -1.297  -1.388  1.00  0.00     0.162 C 
HETATM    7  N2  UNL     1      -0.318  -0.292  -1.330  1.00  0.00    -0.343 N 
HETATM    8  C8  UNL     1       1.037  -0.761  -1.454  1.00  0.00     0.297 C 
HETATM    9  O1  UNL     1       1.340  -1.552  -2.387  1.00  0.00    -0.263 OA
HETATM   10  C15 UNL     1      -0.536   1.166  -1.434  1.00  0.00     0.128 C 
HETATM   11  C16 UNL     1      -1.977   1.670  -1.194  1.00  0.00     0.055 C 
ENDROOT
BRANCH   8  12
HETATM   12  C9  UNL     1       2.077  -0.356  -0.496  1.00  0.00     0.239 A 
HETATM   13  N3  UNL     1       1.830   0.336   0.638  1.00  0.00    -0.229 NA
HETATM   14  C10 UNL     1       3.046   0.466   1.200  1.00  0.00     0.161 A 
HETATM   15  C11 UNL     1       3.975  -0.151   0.391  1.00  0.00     0.141 A 
HETATM   16  O2  UNL     1       3.349  -0.650  -0.644  1.00  0.00    -0.282 OA
BRANCH  15  17
HETATM   17  C12 UNL     1       5.422  -0.255   0.617  1.00  0.00     0.163 A 
HETATM   18  N4  UNL     1       6.254  -0.885  -0.239  1.00  0.00    -0.239 NA
HETATM   19  C13 UNL     1       7.469  -0.753   0.330  1.00  0.00     0.136 A 
HETATM   20  C14 UNL     1       7.352  -0.051   1.508  1.00  0.00     0.109 A 
HETATM   21  N5  UNL     1       6.060   0.261   1.686  1.00  0.00    -0.347 N 
HETATM   22  H17 UNL     1       5.648   0.791   2.486  1.00  0.00     0.167 HD
ENDBRANCH  15  17
ENDBRANCH   8  12
BRANCH   1  23
HETATM   23  C2  UNL     1      -4.664  -0.477   0.204  1.00  0.00     0.269 C 
HETATM   24  C1  UNL     1      -5.806   0.269  -0.483  1.00  0.00     0.037 C 
ENDBRANCH   1  23
TORSDOF 3
