REMARK  2 active torsions:
REMARK  status: ('A' for Active; 'I' for Inactive)
REMARK    1  A    between atoms: C6_7  and  C7_8 
REMARK    2  A    between atoms: C10_11  and  C11_12 
REMARK       I    between atoms: C11_12  and  N1_14 
ROOT
HETATM    1  C7  UNL     1       2.792   0.275   0.477  1.00  0.00    -0.026 A 
HETATM    2  C8  UNL     1       2.098   1.427   0.890  1.00  0.00     0.013 A 
HETATM    3  C9  UNL     1       0.750   1.600   0.567  1.00  0.00     0.018 A 
HETATM    4  C10 UNL     1       0.056   0.614  -0.153  1.00  0.00     0.032 A 
HETATM    5  C19 UNL     1       0.748  -0.532  -0.573  1.00  0.00     0.018 A 
HETATM    6  C20 UNL     1       2.101  -0.704  -0.261  1.00  0.00     0.013 A 
ENDROOT
BRANCH   4   7
HETATM    7  C11 UNL     1      -1.366   0.825  -0.515  1.00  0.00     0.254 C 
HETATM    8  O1  UNL     1      -1.807   1.997  -0.616  1.00  0.00    -0.267 OA
HETATM    9  N1  UNL     1      -2.262  -0.274  -0.736  1.00  0.00    -0.339 N 
HETATM   10  C12 UNL     1      -3.273  -0.178  -1.792  1.00  0.00     0.132 C 
HETATM   11  C18 UNL     1      -2.400  -1.333   0.268  1.00  0.00     0.228 C 
HETATM   12  C13 UNL     1      -4.565   0.493  -1.280  1.00  0.00     0.018 C 
HETATM   13  C14 UNL     1      -5.557   0.653  -2.442  1.00  0.00     0.013 C 
HETATM   14  C15 UNL     1      -5.214  -0.306  -0.129  1.00  0.00     0.131 C 
HETATM   15  N2  UNL     1      -4.480  -0.119   1.134  1.00  0.00    -0.355 N 
HETATM   16  C16 UNL     1      -5.010   0.765   2.176  1.00  0.00     0.152 C 
HETATM   17  C17 UNL     1      -3.275  -0.869   1.396  1.00  0.00     0.237 C 
HETATM   18  O2  UNL     1      -2.990  -1.222   2.577  1.00  0.00    -0.272 OA
ENDBRANCH   4   7
BRANCH   1  19
HETATM   19  C6  UNL     1       4.227   0.090   0.827  1.00  0.00    -0.022 A 
HETATM   20  C5  UNL     1       4.711   0.478   2.087  1.00  0.00     0.054 A 
HETATM   21  C4  UNL     1       6.057   0.314   2.415  1.00  0.00     0.117 A 
HETATM   22  C3  UNL     1       6.937  -0.261   1.496  1.00  0.00     0.049 A 
HETATM   23  F1  UNL     1       6.511   0.701   3.626  1.00  0.00    -0.206 F 
HETATM   24  C2  UNL     1       6.473  -0.676   0.241  1.00  0.00    -0.058 A 
HETATM   25  C1  UNL     1       7.433  -1.244  -0.762  1.00  0.00     0.048 C 
HETATM   26  C21 UNL     1       5.124  -0.481  -0.095  1.00  0.00     0.019 A 
ENDBRANCH   1  19
TORSDOF 2
