REMARK  6 active torsions:
REMARK  status: ('A' for Active; 'I' for Inactive)
REMARK       I    between atoms: C1_2  and  N1_3 
REMARK    1  A    between atoms: C1_2  and  C27_30 
REMARK       I    between atoms: N1_3  and  C2_4 
REMARK    2  A    between atoms: C2_4  and  C3_6 
REMARK    3  A    between atoms: C6_9  and  C26_29 
REMARK    4  A    between atoms: C7_10  and  C9_12 
REMARK    5  A    between atoms: C14_17  and  C15_18 
REMARK    6  A    between atoms: C20_23  and  C21_24 
ROOT
HETATM    1  O1  UNL     1      -3.322  -1.212   2.474  1.00  0.00    -0.272 OA
HETATM    2  C1  UNL     1      -2.887  -1.264   1.293  1.00  0.00     0.233 C 
HETATM    3  N1  UNL     1      -1.628  -0.643   0.978  1.00  0.00    -0.293 N 
HETATM    4  C2  UNL     1      -1.002   0.329   1.826  1.00  0.00     0.258 C 
HETATM    5  O2  UNL     1      -1.700   0.990   2.641  1.00  0.00    -0.267 OA
HETATM    6  H1  UNL     1      -1.128  -0.912   0.101  1.00  0.00     0.172 HD
ENDROOT
BRANCH   4   7
HETATM    7  C3  UNL     1       0.456   0.576   1.739  1.00  0.00     0.033 A 
HETATM    8  C4  UNL     1       0.994   1.812   2.126  1.00  0.00     0.018 A 
HETATM    9  C5  UNL     1       2.370   2.036   2.057  1.00  0.00     0.014 A 
HETATM   10  C6  UNL     1       3.235   1.033   1.598  1.00  0.00    -0.014 A 
HETATM   11  C7  UNL     1       2.706  -0.218   1.216  1.00  0.00    -0.013 A 
HETATM   12  C8  UNL     1       1.323  -0.437   1.298  1.00  0.00     0.030 A 
BRANCH  10  13
HETATM   13  C26 UNL     1       4.691   1.288   1.585  1.00  0.00    -0.014 A 
HETATM   14  C21 UNL     1       5.424   1.333   0.376  1.00  0.00    -0.014 A 
HETATM   15  C22 UNL     1       6.803   1.590   0.415  1.00  0.00     0.013 A 
HETATM   16  C23 UNL     1       7.450   1.802   1.633  1.00  0.00     0.001 A 
HETATM   17  C24 UNL     1       6.727   1.766   2.825  1.00  0.00     0.001 A 
HETATM   18  C25 UNL     1       5.352   1.513   2.803  1.00  0.00     0.013 A 
BRANCH  14  19
HETATM   19  C20 UNL     1       4.764   1.154  -0.938  1.00  0.00    -0.014 A 
HETATM   20  C15 UNL     1       4.219  -0.092  -1.327  1.00  0.00    -0.014 A 
HETATM   21  C16 UNL     1       3.636  -0.224  -2.598  1.00  0.00     0.013 A 
HETATM   22  C17 UNL     1       3.583   0.866  -3.467  1.00  0.00     0.001 A 
HETATM   23  C18 UNL     1       4.121   2.094  -3.085  1.00  0.00     0.001 A 
HETATM   24  C19 UNL     1       4.714   2.237  -1.828  1.00  0.00     0.013 A 
BRANCH  20  25
HETATM   25  C14 UNL     1       4.292  -1.278  -0.441  1.00  0.00    -0.014 A 
HETATM   26  C9  UNL     1       3.580  -1.331   0.781  1.00  0.00    -0.014 A 
HETATM   27  C10 UNL     1       3.652  -2.487   1.573  1.00  0.00     0.013 A 
HETATM   28  C11 UNL     1       4.416  -3.580   1.162  1.00  0.00     0.001 A 
HETATM   29  C12 UNL     1       5.112  -3.532  -0.046  1.00  0.00     0.001 A 
HETATM   30  C13 UNL     1       5.051  -2.389  -0.846  1.00  0.00     0.013 A 
ENDBRANCH  20  25
ENDBRANCH  14  19
ENDBRANCH  10  13
ENDBRANCH   4   7
BRANCH   2  31
HETATM   31  C27 UNL     1      -3.633  -2.111   0.270  1.00  0.00     0.116 C 
HETATM   32  C28 UNL     1      -5.183  -1.971   0.238  1.00  0.00     0.058 C 
HETATM   33  C29 UNL     1      -5.701  -0.758   0.952  1.00  0.00    -0.046 A 
HETATM   34  C30 UNL     1      -6.312  -0.945   2.210  1.00  0.00     0.008 A 
HETATM   35  C34 UNL     1      -5.516   0.552   0.445  1.00  0.00    -0.019 A 
HETATM   36  C31 UNL     1      -6.703   0.144   2.984  1.00  0.00     0.001 A 
HETATM   37  C32 UNL     1      -6.478   1.434   2.525  1.00  0.00     0.001 A 
HETATM   38  C33 UNL     1      -5.888   1.638   1.276  1.00  0.00     0.013 A 
HETATM   39  C35 UNL     1      -4.960   0.866  -0.917  1.00  0.00    -0.014 C 
HETATM   40  C36 UNL     1      -5.558   1.973  -1.562  1.00  0.00     0.013 C 
HETATM   41  C40 UNL     1      -3.602   0.585  -1.239  1.00  0.00    -0.014 C 
HETATM   42  C37 UNL     1      -4.768   2.964  -2.147  1.00  0.00     0.001 C 
HETATM   43  C38 UNL     1      -3.379   2.853  -2.106  1.00  0.00     0.001 C 
HETATM   44  C39 UNL     1      -2.796   1.671  -1.644  1.00  0.00     0.013 C 
HETATM   45  C41 UNL     1      -3.213  -0.728  -1.854  1.00  0.00    -0.018 A 
HETATM   46  C42 UNL     1      -2.874  -0.730  -3.227  1.00  0.00     0.013 A 
HETATM   47  C46 UNL     1      -3.109  -1.951  -1.137  1.00  0.00    -0.034 A 
HETATM   48  C43 UNL     1      -2.383  -1.876  -3.851  1.00  0.00     0.001 A 
HETATM   49  C44 UNL     1      -2.233  -3.054  -3.127  1.00  0.00     0.001 A 
HETATM   50  C45 UNL     1      -2.604  -3.097  -1.787  1.00  0.00     0.009 A 
ENDBRANCH   2  31
TORSDOF 6
