REMARK  6 active torsions:
REMARK  status: ('A' for Active; 'I' for Inactive)
REMARK    1  A    between atoms: C7_9  and  O1_10 
REMARK    2  A    between atoms: O1_10  and  C8_11 
REMARK    3  A    between atoms: C8_11  and  C9_12 
REMARK    4  A    between atoms: C9_12  and  N2_13 
REMARK    5  A    between atoms: C16_22  and  C17_23 
REMARK    6  A    between atoms: C17_23  and  O5_25 
ROOT
HETATM    1  N1  UNL     1       4.511  -2.045  -1.001  1.00  0.00    -0.191 NA
HETATM    2  C1  UNL     1       4.215  -1.720   0.069  1.00  0.00     0.102 C 
HETATM    3  C2  UNL     1       3.846  -1.315   1.403  1.00  0.00     0.079 A 
HETATM    4  C3  UNL     1       4.348  -2.040   2.490  1.00  0.00     0.026 A 
HETATM    5  C4  UNL     1       4.010  -1.675   3.791  1.00  0.00     0.003 A 
HETATM    6  C5  UNL     1       3.185  -0.575   4.014  1.00  0.00     0.027 A 
HETATM    7  C6  UNL     1       2.676   0.172   2.942  1.00  0.00     0.069 A 
HETATM    8 CL1  UNL     1       1.728   1.587   3.379  1.00  0.00    -0.081 Cl
HETATM    9  C7  UNL     1       2.990  -0.210   1.605  1.00  0.00     0.111 A 
ENDROOT
BRANCH   9  10
HETATM   10  O1  UNL     1       2.517   0.443   0.445  1.00  0.00    -0.346 OA
BRANCH  10  11
HETATM   11  C8  UNL     1       1.375   1.289   0.303  1.00  0.00     0.196 C 
BRANCH  11  12
HETATM   12  C9  UNL     1       0.069   0.563   0.673  1.00  0.00     0.159 C 
BRANCH  12  13
HETATM   13  N2  UNL     1      -0.526  -0.125  -0.482  1.00  0.00    -0.313 N 
HETATM   14  C10 UNL     1       0.068  -1.343  -0.959  1.00  0.00     0.226 C 
HETATM   15  O2  UNL     1       1.271  -1.349  -1.334  1.00  0.00    -0.273 OA
HETATM   16  C11 UNL     1      -0.713  -2.617  -1.013  1.00  0.00     0.130 C 
HETATM   17  C12 UNL     1      -2.030  -2.493  -0.255  1.00  0.00     0.185 C 
HETATM   18  O3  UNL     1      -2.972  -1.740  -1.012  1.00  0.00    -0.348 OA
HETATM   19  C13 UNL     1      -2.850  -0.392  -1.384  1.00  0.00     0.095 A 
HETATM   20  C14 UNL     1      -3.945   0.179  -2.041  1.00  0.00     0.040 A 
HETATM   21  C19 UNL     1      -1.706   0.408  -1.119  1.00  0.00     0.071 A 
HETATM   22  C15 UNL     1      -3.939   1.520  -2.419  1.00  0.00     0.021 A 
HETATM   23  C16 UNL     1      -2.828   2.328  -2.149  1.00  0.00     0.040 A 
HETATM   24  C18 UNL     1      -1.719   1.764  -1.497  1.00  0.00     0.051 A 
BRANCH  23  25
HETATM   25  C17 UNL     1      -2.826   3.753  -2.548  1.00  0.00     0.176 C 
HETATM   26  O4  UNL     1      -1.826   4.483  -2.309  1.00  0.00    -0.646 OA
BRANCH  25  27
HETATM   27  O5  UNL     1      -3.933   4.303  -3.191  1.00  0.00    -0.773 OA
HETATM   28  H14 UNL     1      -3.943   5.278  -3.466  1.00  0.00     0.167 HD
ENDBRANCH  25  27
ENDBRANCH  23  25
ENDBRANCH  12  13
ENDBRANCH  11  12
ENDBRANCH  10  11
ENDBRANCH   9  10
TORSDOF 6
