REMARK  1 active torsions:
REMARK  status: ('A' for Active; 'I' for Inactive)
REMARK    1  A    between atoms: C1_2  and  C2_3 
REMARK       I    between atoms: C1_2  and  N1_13 
ROOT
HETATM    1  O1  UNL     1       0.486  -0.938   1.849  1.00  0.00    -0.267 OA
HETATM    2  C1  UNL     1       0.007  -0.244   0.912  1.00  0.00     0.254 C 
HETATM    3  N1  UNL     1       0.655  -0.226  -0.375  1.00  0.00    -0.342 N 
HETATM    4  C11 UNL     1       0.654   1.019  -1.159  1.00  0.00     0.153 C 
HETATM    5  C12 UNL     1       1.806   1.092  -2.164  1.00  0.00     0.195 C 
HETATM    6  O3  UNL     1       3.069   1.028  -1.507  1.00  0.00    -0.349 OA
HETATM    7  C13 UNL     1       3.610  -0.082  -0.837  1.00  0.00     0.076 A 
HETATM    8  C14 UNL     1       4.963  -0.002  -0.478  1.00  0.00     0.037 A 
HETATM    9  C15 UNL     1       5.594  -1.056   0.182  1.00  0.00     0.003 A 
HETATM   10  C16 UNL     1       4.879  -2.209   0.498  1.00  0.00     0.001 A 
HETATM   11  C17 UNL     1       3.529  -2.307   0.161  1.00  0.00     0.011 A 
HETATM   12  C18 UNL     1       2.872  -1.250  -0.497  1.00  0.00    -0.007 A 
HETATM   13  C19 UNL     1       1.407  -1.405  -0.816  1.00  0.00     0.167 C 
ENDROOT
BRANCH   2  14
HETATM   14  C2  UNL     1      -1.206   0.557   1.163  1.00  0.00     0.039 A 
HETATM   15  C3  UNL     1      -1.154   1.577   2.124  1.00  0.00     0.017 A 
HETATM   16  C4  UNL     1      -2.271   2.375   2.368  1.00  0.00     0.002 A 
HETATM   17  C5  UNL     1      -3.454   2.161   1.661  1.00  0.00     0.010 A 
HETATM   18  C6  UNL     1      -3.529   1.143   0.701  1.00  0.00    -0.027 A 
HETATM   19  C7  UNL     1      -2.412   0.313   0.465  1.00  0.00    -0.032 A 
HETATM   20  C10 UNL     1      -4.839   0.864   0.002  1.00  0.00     0.206 C 
HETATM   21  C8  UNL     1      -2.526  -0.810  -0.543  1.00  0.00     0.066 C 
HETATM   22  C9  UNL     1      -3.989  -1.094  -0.894  1.00  0.00     0.172 C 
HETATM   23  O2  UNL     1      -4.661   0.115  -1.187  1.00  0.00    -0.386 OA
ENDBRANCH   2  14
TORSDOF 1
