REMARK  4 active torsions:
REMARK  status: ('A' for Active; 'I' for Inactive)
REMARK    1  A    between atoms: C4_5  and  C5_6 
REMARK    2  A    between atoms: C5_6  and  N2_7 
REMARK       I    between atoms: N2_7  and  C6_8 
REMARK    3  A    between atoms: C6_8  and  C7_10 
REMARK    4  A    between atoms: C7_10  and  C8_11 
ROOT
HETATM    1  N2  UNL     1      -0.489   0.223   0.664  1.00  0.00    -0.346 N 
HETATM    2  C6  UNL     1       0.146   1.222  -0.150  1.00  0.00     0.220 C 
HETATM    3  O1  UNL     1      -0.399   1.615  -1.218  1.00  0.00    -0.274 OA
HETATM    4  H5  UNL     1      -0.070   0.017   1.599  1.00  0.00     0.163 HD
ENDROOT
BRANCH   1   5
HETATM    5  C5  UNL     1      -1.719  -0.475   0.254  1.00  0.00     0.077 A 
HETATM    6  C14 UNL     1      -1.900  -1.792   1.022  1.00  0.00     0.038 A 
HETATM    7  C15 UNL     1      -1.608  -2.575  -0.254  1.00  0.00     0.006 A 
HETATM    8  C16 UNL     1      -1.487  -1.273  -1.038  1.00  0.00     0.038 A 
BRANCH   5   9
HETATM    9  C4  UNL     1      -2.942   0.448   0.308  1.00  0.00     0.058 A 
HETATM   10  C3  UNL     1      -2.946   1.688   0.925  1.00  0.00     0.146 A 
HETATM   11  N1  UNL     1      -4.168   2.242   0.839  1.00  0.00    -0.246 NA
HETATM   12  C2  UNL     1      -4.904   1.326   0.180  1.00  0.00     0.101 A 
HETATM   13  C1  UNL     1      -6.352   1.541  -0.136  1.00  0.00     0.091 C 
HETATM   14  N4  UNL     1      -4.205   0.208  -0.133  1.00  0.00    -0.340 N 
HETATM   15  C17 UNL     1      -4.738  -0.946  -0.861  1.00  0.00     0.157 C 
ENDBRANCH   5   9
ENDBRANCH   1   5
BRANCH   2  16
HETATM   16  C7  UNL     1       1.492   1.765   0.233  1.00  0.00     0.138 C 
BRANCH  16  17
HETATM   17  C8  UNL     1       2.627   0.965  -0.440  1.00  0.00     0.229 C 
HETATM   18  C9  UNL     1       4.011   1.597  -0.118  1.00  0.00     0.036 C 
HETATM   19  C10 UNL     1       4.721   1.014   1.117  1.00  0.00     0.002 C 
HETATM   20  C11 UNL     1       5.552  -0.233   0.772  1.00  0.00     0.002 C 
HETATM   21  C12 UNL     1       4.708  -1.488   0.520  1.00  0.00     0.030 C 
HETATM   22  C13 UNL     1       3.634  -1.294  -0.563  1.00  0.00     0.270 C 
HETATM   23  N3  UNL     1       2.519  -0.464  -0.082  1.00  0.00     0.088 N 
HETATM   24  H19 UNL     1       2.372  -0.587   0.948  1.00  0.00     0.316 HD
ENDBRANCH  16  17
ENDBRANCH   2  16
TORSDOF 4
