REMARK  3 active torsions:
REMARK  status: ('A' for Active; 'I' for Inactive)
REMARK    1  A    between atoms: C4_4  and  N1_5 
REMARK    2  A    between atoms: C17_21  and  C18_22 
REMARK    3  A    between atoms: C21_26  and  N4_27 
ROOT
HETATM    1  C1  UNL     1       2.648  -1.541  -2.043  1.00  0.00     0.049 C 
HETATM    2  C2  UNL     1       1.818  -0.799  -1.027  1.00  0.00    -0.047 A 
HETATM    3  C3  UNL     1       0.427  -0.731  -1.216  1.00  0.00     0.037 A 
HETATM    4  C4  UNL     1      -0.402  -0.084  -0.281  1.00  0.00     0.035 A 
HETATM    5  C15 UNL     1       0.184   0.509   0.847  1.00  0.00     0.030 A 
HETATM    6  C16 UNL     1       1.565   0.467   1.036  1.00  0.00     0.016 A 
HETATM    7  C17 UNL     1       2.398  -0.163   0.099  1.00  0.00    -0.001 A 
ENDROOT
BRANCH   4   8
HETATM    8  N1  UNL     1      -1.832  -0.020  -0.474  1.00  0.00    -0.342 N 
HETATM    9  C5  UNL     1      -2.547  -1.075  -1.206  1.00  0.00     0.167 C 
HETATM   10  C6  UNL     1      -3.994  -1.216  -0.708  1.00  0.00     0.192 A 
HETATM   11  C7  UNL     1      -4.048  -1.418   0.777  1.00  0.00     0.094 A 
HETATM   12  O2  UNL     1      -4.520  -2.466  -1.023  1.00  0.00    -0.372 OA
HETATM   13  N2  UNL     1      -3.750  -0.814   1.884  1.00  0.00    -0.132 NA
HETATM   14  C14 UNL     1      -4.600  -2.742   0.339  1.00  0.00     0.228 A 
HETATM   15  O1  UNL     1      -3.282   0.487   2.001  1.00  0.00    -0.211 OA
HETATM   16  C8  UNL     1      -3.232   1.433   0.964  1.00  0.00     0.128 A 
HETATM   17  C9  UNL     1      -3.865   2.665   1.171  1.00  0.00     0.042 A 
HETATM   18  C13 UNL     1      -2.510   1.221  -0.231  1.00  0.00     0.071 A 
HETATM   19  C10 UNL     1      -3.809   3.666   0.197  1.00  0.00     0.003 A 
HETATM   20  C11 UNL     1      -3.106   3.449  -0.989  1.00  0.00     0.002 A 
HETATM   21  C12 UNL     1      -2.456   2.231  -1.202  1.00  0.00     0.033 A 
ENDBRANCH   4   8
BRANCH   7  22
HETATM   22  C18 UNL     1       3.857  -0.149   0.340  1.00  0.00     0.088 A 
HETATM   23  C19 UNL     1       4.746   0.360  -0.616  1.00  0.00     0.053 A 
HETATM   24  C20 UNL     1       6.108   0.370  -0.321  1.00  0.00     0.139 A 
HETATM   25  N3  UNL     1       6.547  -0.092   0.878  1.00  0.00    -0.075 NA
HETATM   26  C21 UNL     1       5.673  -0.567   1.805  1.00  0.00     0.720 A 
HETATM   27  N5  UNL     1       4.341  -0.587   1.534  1.00  0.00    -0.063 NA
BRANCH  26  28
HETATM   28  N4  UNL     1       6.153  -1.041   3.061  1.00  0.00    -0.231 N 
HETATM   29  H18 UNL     1       5.487  -1.406   3.777  1.00  0.00     0.174 HD
HETATM   30  H19 UNL     1       7.175  -1.028   3.276  1.00  0.00     0.174 HD
ENDBRANCH  26  28
ENDBRANCH   7  22
TORSDOF 3
