REMARK  5 active torsions:
REMARK  status: ('A' for Active; 'I' for Inactive)
REMARK    1  A    between atoms: C4_6  and  C23_29 
REMARK    2  A    between atoms: N2_8  and  C6_9 
REMARK    3  A    between atoms: C6_9  and  C7_10 
REMARK    4  A    between atoms: C11_14  and  C12_15 
REMARK    5  A    between atoms: C16_19  and  C17_20 
ROOT
HETATM    1  C7  UNL     1       0.156  -1.195  -0.585  1.00  0.00    -0.039 A 
HETATM    2  C8  UNL     1       0.364  -2.462  -0.018  1.00  0.00     0.009 A 
HETATM    3  C9  UNL     1       1.539  -2.733   0.685  1.00  0.00     0.001 A 
HETATM    4  C10 UNL     1       2.512  -1.743   0.838  1.00  0.00     0.012 A 
HETATM    5  C11 UNL     1       2.318  -0.463   0.286  1.00  0.00    -0.025 A 
HETATM    6  C21 UNL     1       1.135  -0.201  -0.428  1.00  0.00     0.021 A 
ENDROOT
BRANCH   1   7
HETATM    7  C6  UNL     1      -1.131  -0.884  -1.301  1.00  0.00     0.166 C 
BRANCH   7   8
HETATM    8  N2  UNL     1      -2.072  -0.224  -0.383  1.00  0.00    -0.327 N 
HETATM    9  C5  UNL     1      -2.933  -1.075   0.451  1.00  0.00     0.160 C 
HETATM   10  C4  UNL     1      -4.417  -0.960   0.026  1.00  0.00     0.143 C 
HETATM   11  O1  UNL     1      -4.654   0.281  -0.618  1.00  0.00    -0.382 OA
HETATM   12  C3  UNL     1      -5.074   1.284   0.284  1.00  0.00     0.188 C 
HETATM   13  C2  UNL     1      -4.037   1.623   1.371  1.00  0.00     0.153 C 
HETATM   14  N1  UNL     1      -2.695   1.933   0.834  1.00  0.00    -0.336 N 
HETATM   15  C1  UNL     1      -1.978   3.092   1.378  1.00  0.00     0.154 C 
HETATM   16  C22 UNL     1      -2.054   1.224  -0.256  1.00  0.00     0.320 C 
HETATM   17  O3  UNL     1      -1.412   1.902  -1.107  1.00  0.00    -0.247 OA
BRANCH  10  18
HETATM   18  C23 UNL     1      -4.745  -2.068  -0.989  1.00  0.00     0.016 A 
HETATM   19  C24 UNL     1      -5.207  -3.395  -0.403  1.00  0.00     0.007 A 
HETATM   20  C25 UNL     1      -6.213  -2.462  -1.062  1.00  0.00     0.007 A 
ENDBRANCH  10  18
ENDBRANCH   7   8
ENDBRANCH   1   7
BRANCH   5  21
HETATM   21  C12 UNL     1       3.342   0.598   0.462  1.00  0.00    -0.025 A 
HETATM   22  C13 UNL     1       2.956   1.918   0.751  1.00  0.00     0.012 A 
HETATM   23  C14 UNL     1       3.918   2.916   0.915  1.00  0.00     0.002 A 
HETATM   24  C15 UNL     1       5.275   2.611   0.793  1.00  0.00     0.014 A 
HETATM   25  C16 UNL     1       5.687   1.299   0.506  1.00  0.00     0.001 A 
HETATM   26  C20 UNL     1       4.712   0.297   0.341  1.00  0.00     0.026 A 
BRANCH  25  27
HETATM   27  C17 UNL     1       7.131   1.000   0.377  1.00  0.00     0.113 A 
HETATM   28  C18 UNL     1       7.722  -0.226   0.127  1.00  0.00     0.061 A 
HETATM   29  C19 UNL     1       9.071   0.053   0.108  1.00  0.00     0.149 A 
HETATM   30  N3  UNL     1       9.259   1.367   0.333  1.00  0.00    -0.140 NA
HETATM   31  O2  UNL     1       8.082   1.900   0.490  1.00  0.00    -0.213 OA
ENDBRANCH  25  27
ENDBRANCH   5  21
TORSDOF 5
