REMARK  1 active torsions:
REMARK  status: ('A' for Active; 'I' for Inactive)
REMARK    1  A    between atoms: C9_10  and  C10_11 
ROOT
HETATM    1  C10 UNL     1      -0.176  -1.201  -0.148  1.00  0.00    -0.038 C 
HETATM    2  C11 UNL     1       0.011  -2.551  -0.521  1.00  0.00     0.009 C 
HETATM    3  C12 UNL     1       1.211  -3.210  -0.280  1.00  0.00     0.002 C 
HETATM    4  C13 UNL     1       2.283  -2.528   0.274  1.00  0.00     0.013 C 
HETATM    5  C14 UNL     1       2.201  -1.152   0.521  1.00  0.00    -0.018 C 
HETATM    6  C15 UNL     1       0.985  -0.462   0.259  1.00  0.00    -0.035 C 
HETATM    7  C16 UNL     1       1.020   1.055   0.287  1.00  0.00     0.079 C 
HETATM    8  C17 UNL     1       1.914   1.537  -0.824  1.00  0.00    -0.043 A 
HETATM    9  C18 UNL     1       1.348   2.135  -1.965  1.00  0.00     0.008 A 
HETATM   10  C19 UNL     1       2.160   2.556  -3.019  1.00  0.00     0.001 A 
HETATM   11  C20 UNL     1       3.541   2.375  -2.952  1.00  0.00     0.001 A 
HETATM   12  C21 UNL     1       4.115   1.772  -1.831  1.00  0.00     0.013 A 
HETATM   13  C22 UNL     1       3.313   1.344  -0.756  1.00  0.00    -0.018 A 
HETATM   14  C23 UNL     1       3.947   0.713   0.435  1.00  0.00    -0.014 A 
HETATM   15  C24 UNL     1       5.110   1.296   0.974  1.00  0.00     0.013 A 
HETATM   16  C25 UNL     1       5.740   0.736   2.087  1.00  0.00     0.001 A 
HETATM   17  C26 UNL     1       5.217  -0.408   2.683  1.00  0.00     0.001 A 
HETATM   18  C27 UNL     1       4.064  -1.000   2.169  1.00  0.00     0.013 A 
HETATM   19  C28 UNL     1       3.412  -0.456   1.046  1.00  0.00    -0.014 A 
ENDROOT
BRANCH   1  20
HETATM   20  C9  UNL     1      -1.543  -0.516  -0.373  1.00  0.00     0.086 C 
HETATM   21  C4  UNL     1      -2.745  -1.391  -0.703  1.00  0.00    -0.038 C 
HETATM   22  C3  UNL     1      -3.789  -0.835  -1.485  1.00  0.00    -0.044 C 
HETATM   23  C5  UNL     1      -3.011  -2.575   0.019  1.00  0.00     0.009 C 
HETATM   24  C2  UNL     1      -3.700   0.588  -2.001  1.00  0.00     0.123 C 
HETATM   25  C8  UNL     1      -4.961  -1.580  -1.711  1.00  0.00     0.008 C 
HETATM   26  C1  UNL     1      -3.583   1.632  -0.901  1.00  0.00     0.164 C 
HETATM   27  O1  UNL     1      -3.996   2.791  -1.176  1.00  0.00    -0.292 OA
HETATM   28  C34 UNL     1      -3.004   1.391   0.466  1.00  0.00     0.017 A 
HETATM   29  C29 UNL     1      -2.047   0.372   0.747  1.00  0.00    -0.031 A 
HETATM   30  C33 UNL     1      -3.447   2.208   1.525  1.00  0.00     0.016 A 
HETATM   31  C30 UNL     1      -1.663   0.133   2.082  1.00  0.00     0.009 A 
HETATM   32  C31 UNL     1      -2.127   0.951   3.111  1.00  0.00     0.001 A 
HETATM   33  C32 UNL     1      -3.005   1.993   2.831  1.00  0.00     0.001 A 
HETATM   34  C7  UNL     1      -5.142  -2.819  -1.096  1.00  0.00     0.001 C 
HETATM   35  C6  UNL     1      -4.181  -3.302  -0.210  1.00  0.00     0.001 C 
ENDBRANCH   1  20
TORSDOF 1
