REMARK  2 active torsions:
REMARK  status: ('A' for Active; 'I' for Inactive)
REMARK    1  A    between atoms: S1_2  and  C1_4 
REMARK    2  A    between atoms: S1_2  and  C27_30 
ROOT
HETATM    1  C1  UNL     1       1.834   1.737  -0.072  1.00  0.00     0.064 A 
HETATM    2  C2  UNL     1       1.554   1.922   1.280  1.00  0.00     0.025 A 
HETATM    3  C3  UNL     1       0.421   1.345   1.844  1.00  0.00     0.014 A 
HETATM    4  C4  UNL     1      -0.459   0.561   1.075  1.00  0.00    -0.019 A 
HETATM    5  C5  UNL     1      -0.163   0.332  -0.310  1.00  0.00    -0.045 A 
HETATM    6  C6  UNL     1       0.983   0.952  -0.854  1.00  0.00     0.031 A 
HETATM    7  C7  UNL     1      -1.033  -0.434  -1.312  1.00  0.00     0.044 C 
HETATM    8  C8  UNL     1      -1.775  -1.690  -0.798  1.00  0.00     0.044 C 
HETATM    9  C9  UNL     1      -3.273  -1.794  -1.097  1.00  0.00    -0.047 A 
HETATM   10  C10 UNL     1      -3.761  -3.103  -1.301  1.00  0.00     0.008 A 
HETATM   11  C11 UNL     1      -5.115  -3.351  -1.520  1.00  0.00     0.001 A 
HETATM   12  C12 UNL     1      -6.024  -2.300  -1.525  1.00  0.00     0.001 A 
HETATM   13  C13 UNL     1      -5.584  -0.998  -1.306  1.00  0.00     0.013 A 
HETATM   14  C14 UNL     1      -4.222  -0.717  -1.080  1.00  0.00    -0.019 A 
HETATM   15  C15 UNL     1      -3.877   0.716  -0.875  1.00  0.00    -0.014 A 
HETATM   16  C16 UNL     1      -4.165   1.631  -1.905  1.00  0.00     0.013 A 
HETATM   17  C17 UNL     1      -3.830   2.980  -1.775  1.00  0.00     0.001 A 
HETATM   18  C18 UNL     1      -3.207   3.436  -0.613  1.00  0.00     0.001 A 
HETATM   19  C19 UNL     1      -2.927   2.546   0.424  1.00  0.00     0.013 A 
HETATM   20  C20 UNL     1      -3.263   1.187   0.307  1.00  0.00    -0.014 A 
HETATM   21  C21 UNL     1      -2.962   0.278   1.424  1.00  0.00    -0.014 A 
HETATM   22  C22 UNL     1      -4.025  -0.315   2.125  1.00  0.00     0.013 A 
HETATM   23  C23 UNL     1      -3.774  -1.173   3.196  1.00  0.00     0.001 A 
HETATM   24  C24 UNL     1      -2.461  -1.443   3.581  1.00  0.00     0.001 A 
HETATM   25  C25 UNL     1      -1.395  -0.862   2.890  1.00  0.00     0.013 A 
HETATM   26  C26 UNL     1      -1.629  -0.005   1.798  1.00  0.00    -0.014 A 
ENDROOT
BRANCH   1  27
HETATM   27  S1  UNL     1       3.271   2.456  -0.789  1.00  0.00     0.206 S 
HETATM   28  O1  UNL     1       3.723   3.637   0.024  1.00  0.00    -0.217 OA
HETATM   29  O2  UNL     1       2.959   2.938  -2.179  1.00  0.00    -0.217 OA
BRANCH  27  30
HETATM   30  C27 UNL     1       4.546   1.246  -0.841  1.00  0.00     0.065 A 
HETATM   31  C28 UNL     1       4.692   0.418  -1.978  1.00  0.00     0.024 A 
HETATM   32  C29 UNL     1       5.692  -0.569  -2.018  1.00  0.00     0.011 A 
HETATM   33  C30 UNL     1       6.530  -0.714  -0.913  1.00  0.00    -0.025 A 
HETATM   34  C31 UNL     1       6.379   0.090   0.195  1.00  0.00     0.041 A 
HETATM   35  C34 UNL     1       7.653  -1.693  -0.721  1.00  0.00     0.162 A 
HETATM   36  C32 UNL     1       5.398   1.076   0.267  1.00  0.00     0.041 A 
HETATM   37  C33 UNL     1       7.376  -0.314   1.152  1.00  0.00     0.252 A 
HETATM   38  O3  UNL     1       7.553   0.188   2.294  1.00  0.00    -0.268 OA
HETATM   39  N1  UNL     1       8.150  -1.381   0.621  1.00  0.00    -0.353 N 
HETATM   40  H23 UNL     1       8.939  -1.862   1.107  1.00  0.00     0.163 HD
ENDBRANCH  27  30
ENDBRANCH   1  27
TORSDOF 2
