REMARK  4 active torsions:
REMARK  status: ('A' for Active; 'I' for Inactive)
REMARK    1  A    between atoms: C6_6  and  C7_7 
REMARK       I    between atoms: C7_7  and  N1_9 
REMARK    2  A    between atoms: N1_9  and  C9_11 
REMARK    3  A    between atoms: C9_11  and  C10_12 
REMARK       I    between atoms: N2_14  and  C12_15 
REMARK    4  A    between atoms: C12_15  and  C13_17 
ROOT
HETATM    1  C10 UNL     1       1.703   1.040  -0.836  1.00  0.00     0.040 C 
HETATM    2  C11 UNL     1       0.954   2.352  -0.953  1.00  0.00     0.134 C 
HETATM    3  N2  UNL     1      -0.410   1.824  -0.733  1.00  0.00    -0.347 N 
HETATM    4  C12 UNL     1      -1.557   2.210   0.060  1.00  0.00     0.255 C 
HETATM    5  O2  UNL     1      -1.425   3.051   0.979  1.00  0.00    -0.267 OA
HETATM    6  C22 UNL     1       0.275   0.513  -0.849  1.00  0.00     0.134 C 
ENDROOT
BRANCH   1   7
HETATM    7  C9  UNL     1       2.364   0.824   0.538  1.00  0.00     0.133 C 
BRANCH   7   8
HETATM    8  N1  UNL     1       3.594   0.045   0.351  1.00  0.00    -0.351 N 
HETATM    9  C7  UNL     1       3.392  -1.370   0.095  1.00  0.00     0.272 C 
HETATM   10  O1  UNL     1       2.662  -2.045   0.900  1.00  0.00    -0.266 OA
HETATM   11  C8  UNL     1       4.744   0.373   1.254  1.00  0.00     0.153 C 
BRANCH   9  12
HETATM   12  C6  UNL     1       3.736  -2.010  -1.104  1.00  0.00     0.124 C 
HETATM   13  C5  UNL     1       3.819  -3.473  -1.061  1.00  0.00     0.037 C 
HETATM   14  C4  UNL     1       4.932  -4.152  -1.668  1.00  0.00     0.004 C 
HETATM   15  C3  UNL     1       5.699  -3.548  -2.695  1.00  0.00     0.027 C 
HETATM   16  C2  UNL     1       5.507  -2.194  -2.942  1.00  0.00     0.031 C 
HETATM   17  C1  UNL     1       6.112  -1.553  -4.138  1.00  0.00     0.070 C 
HETATM   18  N4  UNL     1       4.609  -1.483  -2.154  1.00  0.00    -0.248 NA
ENDBRANCH   9  12
ENDBRANCH   7   8
ENDBRANCH   1   7
BRANCH   4  19
HETATM   19  C13 UNL     1      -2.840   1.477  -0.079  1.00  0.00     0.056 A 
HETATM   20  C14 UNL     1      -3.189   0.697  -1.166  1.00  0.00     0.036 A 
HETATM   21  C15 UNL     1      -4.424   0.127  -0.864  1.00  0.00     0.092 A 
HETATM   22  N3  UNL     1      -4.812   0.478   0.371  1.00  0.00    -0.359 N 
HETATM   23  C16 UNL     1      -3.829   1.254   0.897  1.00  0.00     0.027 A 
HETATM   24  C21 UNL     1      -5.896  -0.190   1.069  1.00  0.00     0.128 C 
HETATM   25  C17 UNL     1      -3.899   1.911   2.272  1.00  0.00     0.058 C 
HETATM   26  C18 UNL     1      -4.455   0.971   3.378  1.00  0.00     0.006 C 
HETATM   27  C19 UNL     1      -6.002   0.910   3.408  1.00  0.00     0.002 C 
HETATM   28  C20 UNL     1      -6.684   0.786   2.018  1.00  0.00     0.020 C 
ENDBRANCH   4  19
TORSDOF 4
