REMARK  3 active torsions:
REMARK  status: ('A' for Active; 'I' for Inactive)
REMARK    1  A    between atoms: C6_6  and  N1_7 
REMARK    2  A    between atoms: N2_11  and  C10_12 
REMARK    3  A    between atoms: C10_12  and  C11_13 
ROOT
HETATM    1  C1  UNL     1       6.294  -0.046  -0.091  1.00  0.00     0.048 C 
HETATM    2  C2  UNL     1       4.813  -0.068   0.143  1.00  0.00    -0.061 A 
HETATM    3  C3  UNL     1       3.960   0.697  -0.665  1.00  0.00     0.007 A 
HETATM    4  C4  UNL     1       2.577   0.653  -0.476  1.00  0.00     0.015 A 
HETATM    5  C5  UNL     1       2.018  -0.171   0.518  1.00  0.00     0.001 A 
HETATM    6  C6  UNL     1       0.622  -0.232   0.728  1.00  0.00     0.041 A 
HETATM    7  C14 UNL     1       0.105  -1.064   1.729  1.00  0.00     0.030 A 
HETATM    8  C15 UNL     1       0.957  -1.835   2.520  1.00  0.00     0.003 A 
HETATM    9  C16 UNL     1       2.338  -1.785   2.322  1.00  0.00     0.012 A 
HETATM   10  C17 UNL     1       2.879  -0.957   1.327  1.00  0.00    -0.023 A 
HETATM   11  C18 UNL     1       4.267  -0.905   1.128  1.00  0.00     0.019 A 
ENDROOT
BRANCH   6  12
HETATM   12  N1  UNL     1      -0.284   0.537  -0.077  1.00  0.00    -0.378 N 
HETATM   13  C7  UNL     1      -0.815   1.793   0.481  1.00  0.00     0.125 C 
HETATM   14  C8  UNL     1      -1.986   2.376  -0.331  1.00  0.00     0.050 C 
HETATM   15  C9  UNL     1      -3.242   1.481  -0.335  1.00  0.00     0.274 C 
HETATM   16  N2  UNL     1      -2.919   0.049  -0.150  1.00  0.00     0.092 N 
HETATM   17  C12 UNL     1      -2.181  -0.534  -1.292  1.00  0.00     0.292 C 
HETATM   18  C13 UNL     1      -0.732  -0.018  -1.364  1.00  0.00     0.153 C 
BRANCH  16  19
HETATM   19  C10 UNL     1      -4.096  -0.758   0.245  1.00  0.00     0.303 C 
BRANCH  19  20
HETATM   20  C11 UNL     1      -5.188  -0.838  -0.832  1.00  0.00     0.252 C 
HETATM   21  F1  UNL     1      -6.228  -1.624  -0.370  1.00  0.00    -0.254 F 
ENDBRANCH  19  20
ENDBRANCH  16  19
ENDBRANCH   6  12
TORSDOF 3
