REMARK  3 active torsions:
REMARK  status: ('A' for Active; 'I' for Inactive)
REMARK    1  A    between atoms: C4_4  and  N1_5 
REMARK    2  A    between atoms: C6_7  and  N2_8 
REMARK       I    between atoms: N2_8  and  C7_9 
REMARK    3  A    between atoms: C7_9  and  C8_11 
ROOT
HETATM    1  N1  UNL     1      -2.719  -0.667  -0.015  1.00  0.00    -0.363 N 
HETATM    2  C5  UNL     1      -1.451  -0.559  -0.722  1.00  0.00     0.150 C 
HETATM    3  C6  UNL     1      -0.612  -1.740  -0.236  1.00  0.00     0.107 C 
HETATM    4  C17 UNL     1      -1.247  -2.160   1.099  1.00  0.00     0.024 C 
HETATM    5  C18 UNL     1      -1.114  -3.662   1.366  1.00  0.00     0.014 C 
HETATM    6  C19 UNL     1      -2.704  -1.705   1.004  1.00  0.00     0.130 C 
ENDROOT
BRANCH   3   7
HETATM    7  N2  UNL     1       0.790  -1.354  -0.057  1.00  0.00    -0.354 N 
HETATM    8  C7  UNL     1       1.866  -1.940  -0.807  1.00  0.00     0.222 C 
HETATM    9  O1  UNL     1       1.634  -2.851  -1.648  1.00  0.00    -0.273 OA
HETATM   10  H8  UNL     1       1.013  -0.602   0.634  1.00  0.00     0.162 HD
BRANCH   8  11
HETATM   11  C8  UNL     1       3.284  -1.467  -0.603  1.00  0.00     0.080 C 
HETATM   12  C9  UNL     1       3.739  -1.710   0.879  1.00  0.00     0.017 C 
HETATM   13  C10 UNL     1       4.152  -0.448   1.671  1.00  0.00     0.033 C 
HETATM   14  C11 UNL     1       5.381   0.290   1.059  1.00  0.00     0.122 C 
HETATM   15  C12 UNL     1       5.153   1.803   0.884  1.00  0.00     0.038 C 
HETATM   16  O2  UNL     1       5.676  -0.233  -0.218  1.00  0.00    -0.380 OA
HETATM   17  C13 UNL     1       5.049   1.966  -0.624  1.00  0.00     0.013 C 
HETATM   18  C14 UNL     1       3.976   2.965  -1.083  1.00  0.00     0.012 C 
HETATM   19  C15 UNL     1       4.888   0.521  -1.105  1.00  0.00     0.126 C 
HETATM   20  C16 UNL     1       3.418  -0.007  -1.107  1.00  0.00     0.046 C 
ENDBRANCH   8  11
ENDBRANCH   3   7
BRANCH   1  21
HETATM   21  C4  UNL     1      -3.878   0.145  -0.284  1.00  0.00     0.126 A 
HETATM   22  C3  UNL     1      -3.838   1.190  -1.223  1.00  0.00     0.057 A 
HETATM   23  C2  UNL     1      -4.991   1.948  -1.469  1.00  0.00    -0.057 A 
HETATM   24  C1  UNL     1      -4.951   3.086  -2.446  1.00  0.00     0.048 C 
HETATM   25  C22 UNL     1      -6.160   1.674  -0.748  1.00  0.00     0.033 A 
HETATM   26  C20 UNL     1      -6.165   0.635   0.189  1.00  0.00     0.033 A 
HETATM   27  N3  UNL     1      -5.038  -0.100   0.388  1.00  0.00    -0.236 NA
HETATM   28  C21 UNL     1      -7.410   0.306   0.949  1.00  0.00     0.070 C 
ENDBRANCH   1  21
TORSDOF 3
