REMARK  2 active torsions:
REMARK  status: ('A' for Active; 'I' for Inactive)
REMARK       I    between atoms: C1_2  and  N1_3 
REMARK    1  A    between atoms: C1_2  and  C23_27 
REMARK       I    between atoms: N1_3  and  C2_4 
REMARK       I    between atoms: C2_4  and  N2_6 
REMARK    2  A    between atoms: N2_6  and  C3_7 
ROOT
HETATM    1  C3  UNL     1       0.148   0.395   0.690  1.00  0.00     0.037 A 
HETATM    2  C4  UNL     1      -0.879  -0.515   0.967  1.00  0.00     0.042 A 
HETATM    3  C5  UNL     1      -2.187  -0.072   1.218  1.00  0.00    -0.017 A 
HETATM    4  C6  UNL     1      -2.476   1.313   1.192  1.00  0.00    -0.047 A 
HETATM    5  C7  UNL     1      -1.447   2.217   0.877  1.00  0.00     0.010 A 
HETATM    6  C8  UNL     1      -0.152   1.764   0.621  1.00  0.00     0.030 A 
HETATM    7  C9  UNL     1      -3.848   1.853   1.552  1.00  0.00     0.044 C 
HETATM    8  C10 UNL     1      -4.991   1.524   0.563  1.00  0.00     0.044 C 
HETATM    9  C11 UNL     1      -4.556   0.893  -0.743  1.00  0.00    -0.047 A 
HETATM   10  C12 UNL     1      -4.475   1.679  -1.904  1.00  0.00     0.008 A 
HETATM   11  C13 UNL     1      -4.123   1.100  -3.126  1.00  0.00     0.001 A 
HETATM   12  C14 UNL     1      -3.849  -0.267  -3.201  1.00  0.00     0.001 A 
HETATM   13  C15 UNL     1      -3.909  -1.058  -2.052  1.00  0.00     0.013 A 
HETATM   14  C16 UNL     1      -4.249  -0.486  -0.816  1.00  0.00    -0.019 A 
HETATM   15  C17 UNL     1      -4.213  -1.321   0.404  1.00  0.00    -0.014 A 
HETATM   16  C18 UNL     1      -5.144  -2.358   0.565  1.00  0.00     0.013 A 
HETATM   17  C19 UNL     1      -5.126  -3.149   1.716  1.00  0.00     0.001 A 
HETATM   18  C20 UNL     1      -4.174  -2.917   2.711  1.00  0.00     0.001 A 
HETATM   19  C21 UNL     1      -3.232  -1.897   2.556  1.00  0.00     0.013 A 
HETATM   20  C22 UNL     1      -3.248  -1.087   1.410  1.00  0.00    -0.014 A 
ENDROOT
BRANCH   1  21
HETATM   21  N2  UNL     1       1.470  -0.097   0.411  1.00  0.00    -0.309 N 
HETATM   22  C2  UNL     1       2.677   0.584   0.786  1.00  0.00     0.327 C 
HETATM   23  N1  UNL     1       3.938   0.113   0.285  1.00  0.00    -0.275 N 
HETATM   24  O2  UNL     1       2.631   1.574   1.566  1.00  0.00    -0.247 OA
HETATM   25  C1  UNL     1       5.210   0.637   0.706  1.00  0.00     0.259 C 
HETATM   26  H1  UNL     1       3.920  -0.678  -0.395  1.00  0.00     0.173 HD
HETATM   27  O1  UNL     1       5.284   1.350   1.744  1.00  0.00    -0.267 OA
HETATM   28  H2  UNL     1       1.561  -1.052  -0.004  1.00  0.00     0.170 HD
BRANCH  25  29
HETATM   29  C23 UNL     1       6.449   0.326  -0.047  1.00  0.00     0.033 A 
HETATM   30  C24 UNL     1       6.385  -0.039  -1.425  1.00  0.00     0.037 A 
HETATM   31  C25 UNL     1       7.598  -0.295  -2.036  1.00  0.00     0.074 A 
HETATM   32  C26 UNL     1       8.793  -0.209  -1.397  1.00  0.00     0.095 A 
HETATM   33  C29 UNL     1       8.281  -0.667  -3.251  1.00  0.00     0.301 A 
HETATM   34  C27 UNL     1       8.934   0.143  -0.070  1.00  0.00     0.039 A 
HETATM   35  O3  UNL     1       9.486  -0.574  -2.558  1.00  0.00    -0.274 OA
HETATM   36  C28 UNL     1       7.724   0.420   0.613  1.00  0.00     0.020 A 
HETATM   37  O4  UNL     1       7.940  -0.952  -4.429  1.00  0.00    -0.259 OA
ENDBRANCH  25  29
ENDBRANCH   1  21
TORSDOF 2
