REMARK  6 active torsions:
REMARK  status: ('A' for Active; 'I' for Inactive)
REMARK       I    between atoms: C1_2  and  N1_3 
REMARK    1  A    between atoms: C1_2  and  C22_28 
REMARK       I    between atoms: N1_3  and  C2_4 
REMARK    2  A    between atoms: C2_4  and  C3_6 
REMARK    3  A    between atoms: C24_30  and  C45_51 
REMARK    4  A    between atoms: C25_31  and  C28_34 
REMARK    5  A    between atoms: C33_39  and  C34_40 
REMARK    6  A    between atoms: C39_45  and  C40_46 
ROOT
HETATM    1  O1  UNL     1       0.575  -1.995  -1.568  1.00  0.00    -0.267 OA
HETATM    2  C1  UNL     1       0.681  -0.927  -0.838  1.00  0.00     0.258 C 
HETATM    3  N1  UNL     1      -0.473  -0.157  -0.652  1.00  0.00    -0.288 N 
HETATM    4  C2  UNL     1      -1.752  -0.786  -0.481  1.00  0.00     0.275 C 
HETATM    5  O2  UNL     1      -1.784  -2.052  -0.351  1.00  0.00    -0.266 OA
HETATM    6  H1  UNL     1      -0.332   0.828  -0.419  1.00  0.00     0.172 HD
ENDROOT
BRANCH   2   7
HETATM    7  C22 UNL     1       1.894  -0.437  -0.299  1.00  0.00     0.033 C 
HETATM    8  C23 UNL     1       3.068  -0.913  -0.902  1.00  0.00     0.030 C 
HETATM    9  C24 UNL     1       4.280  -0.649  -0.278  1.00  0.00    -0.013 C 
HETATM   10  C25 UNL     1       4.342   0.345   0.810  1.00  0.00    -0.014 C 
HETATM   11  C26 UNL     1       3.132   0.940   1.204  1.00  0.00     0.014 C 
HETATM   12  C27 UNL     1       1.866   0.464   0.754  1.00  0.00     0.018 C 
BRANCH   9  13
HETATM   13  C45 UNL     1       5.393  -1.724  -0.541  1.00  0.00    -0.014 C 
HETATM   14  C40 UNL     1       6.761  -1.382  -1.002  1.00  0.00    -0.014 C 
HETATM   15  C41 UNL     1       7.529  -2.369  -1.620  1.00  0.00     0.013 C 
HETATM   16  C42 UNL     1       6.927  -3.589  -2.040  1.00  0.00     0.001 C 
HETATM   17  C43 UNL     1       5.678  -3.937  -1.623  1.00  0.00     0.001 C 
HETATM   18  C44 UNL     1       4.925  -3.047  -0.789  1.00  0.00     0.013 C 
BRANCH  14  19
HETATM   19  C39 UNL     1       7.204   0.119  -1.216  1.00  0.00    -0.014 C 
HETATM   20  C34 UNL     1       7.272   1.126  -0.139  1.00  0.00    -0.014 C 
HETATM   21  C35 UNL     1       8.124   2.264  -0.360  1.00  0.00     0.013 C 
HETATM   22  C36 UNL     1       9.037   2.320  -1.447  1.00  0.00     0.001 C 
HETATM   23  C37 UNL     1       8.972   1.397  -2.447  1.00  0.00     0.001 C 
HETATM   24  C38 UNL     1       7.984   0.375  -2.400  1.00  0.00     0.013 C 
BRANCH  20  25
HETATM   25  C33 UNL     1       6.929   0.806   1.368  1.00  0.00    -0.014 C 
HETATM   26  C28 UNL     1       5.544   0.455   1.823  1.00  0.00    -0.014 C 
HETATM   27  C29 UNL     1       5.203   0.678   3.182  1.00  0.00     0.013 C 
HETATM   28  C30 UNL     1       6.099   1.369   4.067  1.00  0.00     0.001 C 
HETATM   29  C31 UNL     1       7.375   1.636   3.652  1.00  0.00     0.001 C 
HETATM   30  C32 UNL     1       7.840   1.273   2.322  1.00  0.00     0.013 C 
ENDBRANCH  20  25
ENDBRANCH  14  19
ENDBRANCH   9  13
ENDBRANCH   2   7
BRANCH   4  31
HETATM   31  C3  UNL     1      -2.850   0.046  -0.109  1.00  0.00     0.103 C 
HETATM   32  C4  UNL     1      -4.109  -0.493  -0.549  1.00  0.00     0.048 C 
HETATM   33  C5  UNL     1      -5.270   0.295  -0.433  1.00  0.00    -0.012 C 
HETATM   34  C6  UNL     1      -5.063   1.577   0.183  1.00  0.00     0.013 C 
HETATM   35  C21 UNL     1      -6.374  -0.143  -1.488  1.00  0.00    -0.014 C 
HETATM   36  C7  UNL     1      -3.763   2.087   0.540  1.00  0.00     0.187 C 
HETATM   37  C8  UNL     1      -6.157   2.492   0.735  1.00  0.00     0.112 C 
HETATM   38  O3  UNL     1      -3.635   3.268   1.096  1.00  0.00    -0.172 OA
HETATM   39  N2  UNL     1      -2.650   1.310   0.289  1.00  0.00    -0.330 N 
HETATM   40  H3  UNL     1      -1.752   1.669   0.755  1.00  0.00     0.168 HD
HETATM   41  C9  UNL     1      -7.660   2.255   0.741  1.00  0.00     0.100 C 
HETATM   42  O4  UNL     1      -8.284   3.393   1.077  1.00  0.00    -0.196 OA
HETATM   43  C10 UNL     1      -8.368   0.968   1.065  1.00  0.00     0.008 C 
HETATM   44  C11 UNL     1      -9.240   1.086   2.134  1.00  0.00     0.015 C 
HETATM   45  C15 UNL     1      -8.184  -0.324   0.303  1.00  0.00    -0.012 C 
HETATM   46  C12 UNL     1     -10.222   0.083   2.372  1.00  0.00     0.001 C 
HETATM   47  C13 UNL     1     -10.068  -1.124   1.733  1.00  0.00     0.001 C 
HETATM   48  C14 UNL     1      -9.133  -1.342   0.665  1.00  0.00     0.013 C 
HETATM   49  C16 UNL     1      -7.731  -0.423  -1.133  1.00  0.00    -0.014 C 
HETATM   50  C17 UNL     1      -8.526  -1.112  -2.071  1.00  0.00     0.013 C 
HETATM   51  C18 UNL     1      -7.933  -1.767  -3.174  1.00  0.00     0.001 C 
HETATM   52  C19 UNL     1      -6.635  -1.549  -3.520  1.00  0.00     0.001 C 
HETATM   53  C20 UNL     1      -5.891  -0.646  -2.711  1.00  0.00     0.013 C 
ENDBRANCH   4  31
TORSDOF 6
