REMARK  2 active torsions:
REMARK  status: ('A' for Active; 'I' for Inactive)
REMARK       I    between atoms: N2_7  and  C5_8 
REMARK    1  A    between atoms: C5_8  and  C6_10 
REMARK    2  A    between atoms: C6_10  and  C7_11 
ROOT
HETATM    1  O1  UNL     1       7.249   1.121   1.697  1.00  0.00    -0.273 OA
HETATM    2  C1  UNL     1       6.525   0.877   0.697  1.00  0.00     0.222 C 
HETATM    3  N1  UNL     1       7.036   0.704  -0.616  1.00  0.00    -0.360 N 
HETATM    4  C2  UNL     1       5.915   0.477  -1.522  1.00  0.00     0.129 C 
HETATM    5  C3  UNL     1       4.772   0.089  -0.576  1.00  0.00     0.034 C 
HETATM    6  C4  UNL     1       3.334   0.337  -1.001  1.00  0.00     0.132 C 
HETATM    7  N2  UNL     1       2.421  -0.025   0.111  1.00  0.00    -0.351 N 
HETATM    8  C5  UNL     1       1.051  -0.363  -0.222  1.00  0.00     0.224 C 
HETATM    9  O2  UNL     1       0.715  -0.479  -1.435  1.00  0.00    -0.273 OA
HETATM   10  C17 UNL     1       2.777   0.279   1.528  1.00  0.00     0.126 C 
HETATM   11  C18 UNL     1       4.294   0.214   1.834  1.00  0.00     0.034 C 
HETATM   12  C19 UNL     1       5.047   0.876   0.693  1.00  0.00     0.086 C 
HETATM   13  H1  UNL     1       8.022   0.889  -0.907  1.00  0.00     0.162 HD
ENDROOT
BRANCH   8  14
HETATM   14  C6  UNL     1       0.016  -0.607   0.854  1.00  0.00     0.141 C 
BRANCH  14  15
HETATM   15  C7  UNL     1      -1.375  -0.769   0.293  1.00  0.00    -0.049 A 
HETATM   16  C8  UNL     1      -1.841  -2.037  -0.084  1.00  0.00     0.008 A 
HETATM   17  C9  UNL     1      -3.116  -2.185  -0.631  1.00  0.00     0.010 A 
HETATM   18  C10 UNL     1      -3.941  -1.067  -0.827  1.00  0.00    -0.024 A 
HETATM   19  C11 UNL     1      -3.484   0.215  -0.444  1.00  0.00    -0.050 A 
HETATM   20  C16 UNL     1      -5.338  -1.243  -1.373  1.00  0.00     0.308 C 
HETATM   21  C12 UNL     1      -2.195   0.353   0.097  1.00  0.00     0.015 A 
HETATM   22  C13 UNL     1      -4.355   1.441  -0.643  1.00  0.00     0.041 C 
HETATM   23  C14 UNL     1      -5.790   1.340  -0.059  1.00  0.00     0.034 C 
HETATM   24  C15 UNL     1      -6.150   0.004   0.622  1.00  0.00     0.270 C 
HETATM   25  N3  UNL     1      -6.373  -1.098  -0.334  1.00  0.00     0.087 N 
HETATM   26  H18 UNL     1      -6.411  -1.989   0.214  1.00  0.00     0.316 HD
ENDBRANCH  14  15
ENDBRANCH   8  14
TORSDOF 2
