REMARK  2 active torsions:
REMARK  status: ('A' for Active; 'I' for Inactive)
REMARK    1  A    between atoms: C1_2  and  C2_3 
REMARK    2  A    between atoms: C1_2  and  C21_23 
ROOT
HETATM    1  C21 UNL     1       0.191  -1.824   0.843  1.00  0.00     0.016 A 
HETATM    2  C22 UNL     1      -0.805  -1.055   1.449  1.00  0.00     0.028 A 
HETATM    3  C23 UNL     1      -2.161  -1.218   1.114  1.00  0.00    -0.018 A 
HETATM    4  C24 UNL     1      -2.531  -2.196   0.135  1.00  0.00    -0.047 A 
HETATM    5  C25 UNL     1      -1.506  -2.979  -0.434  1.00  0.00     0.009 A 
HETATM    6  C26 UNL     1      -0.170  -2.820  -0.065  1.00  0.00     0.016 A 
HETATM    7  C27 UNL     1      -3.926  -2.380  -0.471  1.00  0.00     0.044 C 
HETATM    8  C28 UNL     1      -5.130  -2.295   0.495  1.00  0.00     0.044 C 
HETATM    9  C29 UNL     1      -6.293  -1.381   0.102  1.00  0.00    -0.047 A 
HETATM   10  C30 UNL     1      -7.569  -1.809   0.526  1.00  0.00     0.008 A 
HETATM   11  C31 UNL     1      -8.711  -1.048   0.289  1.00  0.00     0.001 A 
HETATM   12  C32 UNL     1      -8.614   0.171  -0.370  1.00  0.00     0.001 A 
HETATM   13  C33 UNL     1      -7.372   0.638  -0.789  1.00  0.00     0.013 A 
HETATM   14  C34 UNL     1      -6.196  -0.106  -0.553  1.00  0.00    -0.019 A 
HETATM   15  C35 UNL     1      -4.934   0.509  -1.043  1.00  0.00    -0.014 A 
HETATM   16  C36 UNL     1      -4.810   0.796  -2.415  1.00  0.00     0.013 A 
HETATM   17  C37 UNL     1      -3.648   1.387  -2.916  1.00  0.00     0.001 A 
HETATM   18  C38 UNL     1      -2.598   1.703  -2.055  1.00  0.00     0.001 A 
HETATM   19  C39 UNL     1      -2.706   1.430  -0.693  1.00  0.00     0.013 A 
HETATM   20  C40 UNL     1      -3.868   0.836  -0.178  1.00  0.00    -0.014 A 
HETATM   21  C41 UNL     1      -3.953   0.579   1.266  1.00  0.00    -0.014 A 
HETATM   22  C42 UNL     1      -4.871   1.309   2.041  1.00  0.00     0.013 A 
HETATM   23  C43 UNL     1      -4.955   1.095   3.416  1.00  0.00     0.001 A 
HETATM   24  C44 UNL     1      -4.125   0.156   4.029  1.00  0.00     0.001 A 
HETATM   25  C45 UNL     1      -3.209  -0.573   3.270  1.00  0.00     0.013 A 
HETATM   26  C46 UNL     1      -3.124  -0.385   1.880  1.00  0.00    -0.014 A 
ENDROOT
BRANCH   1  27
HETATM   27  C1  UNL     1       1.602  -1.594   1.205  1.00  0.00     0.192 C 
HETATM   28  O1  UNL     1       1.956  -1.840   2.391  1.00  0.00    -0.287 OA
BRANCH  27  29
HETATM   29  C2  UNL     1       2.577  -0.983   0.261  1.00  0.00     0.016 C 
HETATM   30  C3  UNL     1       3.665  -0.259   0.768  1.00  0.00     0.028 C 
HETATM   31  C4  UNL     1       4.600   0.385  -0.077  1.00  0.00    -0.010 C 
HETATM   32  C5  UNL     1       4.517   0.153  -1.475  1.00  0.00     0.026 C 
HETATM   33  C20 UNL     1       5.406   1.413   0.472  1.00  0.00    -0.014 A 
HETATM   34  C6  UNL     1       3.374  -0.516  -1.975  1.00  0.00     0.017 C 
HETATM   35  C8  UNL     1       5.513   0.509  -2.405  1.00  0.00     0.194 C 
HETATM   36  C7  UNL     1       2.415  -1.057  -1.125  1.00  0.00     0.016 C 
HETATM   37  O2  UNL     1       5.174   0.655  -3.615  1.00  0.00    -0.287 OA
HETATM   38  C9  UNL     1       6.891   0.484  -2.108  1.00  0.00     0.026 A 
HETATM   39  C10 UNL     1       7.757   0.033  -3.135  1.00  0.00     0.016 A 
HETATM   40  C14 UNL     1       7.459   0.856  -0.856  1.00  0.00    -0.011 A 
HETATM   41  C11 UNL     1       9.116  -0.159  -2.908  1.00  0.00     0.001 A 
HETATM   42  C12 UNL     1       9.653   0.102  -1.656  1.00  0.00     0.001 A 
HETATM   43  C13 UNL     1       8.840   0.604  -0.644  1.00  0.00     0.013 A 
HETATM   44  C15 UNL     1       6.761   1.642   0.099  1.00  0.00    -0.014 A 
HETATM   45  C16 UNL     1       7.468   2.689   0.751  1.00  0.00     0.013 A 
HETATM   46  C17 UNL     1       6.877   3.474   1.737  1.00  0.00     0.001 A 
HETATM   47  C18 UNL     1       5.559   3.255   2.092  1.00  0.00     0.001 A 
HETATM   48  C19 UNL     1       4.834   2.244   1.473  1.00  0.00     0.013 A 
ENDBRANCH  27  29
ENDBRANCH   1  27
TORSDOF 2
