REMARK  2 active torsions:
REMARK  status: ('A' for Active; 'I' for Inactive)
REMARK    1  A    between atoms: C2_2  and  C3_4 
REMARK       I    between atoms: N1_12  and  C11_13 
REMARK    2  A    between atoms: C11_13  and  C12_15 
ROOT
HETATM    1  C3  UNL     1      -3.342  -0.772  -0.424  1.00  0.00     0.166 A 
HETATM    2  C4  UNL     1      -3.763   0.604  -1.019  1.00  0.00     0.074 A 
HETATM    3  C5  UNL     1      -2.812   1.558  -0.385  1.00  0.00    -0.029 A 
HETATM    4  C6  UNL     1      -2.777   2.948  -0.513  1.00  0.00     0.009 A 
HETATM    5  C7  UNL     1      -1.803   3.663   0.203  1.00  0.00     0.001 A 
HETATM    6  C8  UNL     1      -0.896   2.983   1.037  1.00  0.00     0.002 A 
HETATM    7  C9  UNL     1      -0.953   1.585   1.153  1.00  0.00     0.030 A 
HETATM    8  C10 UNL     1      -1.915   0.893   0.407  1.00  0.00     0.044 A 
HETATM    9  N1  UNL     1      -2.153  -0.507   0.392  1.00  0.00    -0.301 N 
HETATM   10  C11 UNL     1      -1.283  -1.532   0.903  1.00  0.00     0.259 C 
HETATM   11  O2  UNL     1      -1.789  -2.544   1.460  1.00  0.00    -0.267 OA
ENDROOT
BRANCH  10  12
HETATM   12  C12 UNL     1       0.187  -1.444   0.757  1.00  0.00     0.033 A 
HETATM   13  C13 UNL     1       1.027  -2.055   1.698  1.00  0.00     0.017 A 
HETATM   14  C14 UNL     1       2.414  -1.955   1.577  1.00  0.00     0.010 A 
HETATM   15  C15 UNL     1       2.991  -1.254   0.506  1.00  0.00    -0.024 A 
HETATM   16  C16 UNL     1       2.154  -0.653  -0.460  1.00  0.00    -0.049 A 
HETATM   17  C21 UNL     1       4.495  -1.126   0.425  1.00  0.00     0.308 C 
HETATM   18  C17 UNL     1       0.759  -0.762  -0.329  1.00  0.00     0.024 A 
HETATM   19  C18 UNL     1       2.732   0.123  -1.620  1.00  0.00     0.041 C 
HETATM   20  C19 UNL     1       3.496   1.365  -1.142  1.00  0.00     0.034 C 
HETATM   21  C20 UNL     1       4.915   1.038  -0.649  1.00  0.00     0.270 C 
HETATM   22  N2  UNL     1       4.926   0.269   0.604  1.00  0.00     0.087 N 
HETATM   23  H20 UNL     1       4.341   0.749   1.329  1.00  0.00     0.316 HD
ENDBRANCH  10  12
BRANCH   1  24
HETATM   24  C2  UNL     1      -4.442  -1.365   0.428  1.00  0.00     0.146 C 
HETATM   25  C1  UNL     1      -5.095  -2.665   0.062  1.00  0.00     0.093 C 
HETATM   26  O1  UNL     1      -4.808  -0.781   1.437  1.00  0.00    -0.296 OA
ENDBRANCH   1  24
TORSDOF 2
