REMARK  2 active torsions:
REMARK  status: ('A' for Active; 'I' for Inactive)
REMARK       I    between atoms: C1_2  and  N1_3 
REMARK    1  A    between atoms: C1_2  and  C28_33 
REMARK       I    between atoms: N1_3  and  C2_4 
REMARK    2  A    between atoms: C2_4  and  C3_6 
ROOT
HETATM    1  C3  UNL     1       0.437   1.009   1.065  1.00  0.00     0.033 C 
HETATM    2  C4  UNL     1       0.392   0.292  -0.134  1.00  0.00     0.018 C 
HETATM    3  C5  UNL     1      -0.780  -0.337  -0.546  1.00  0.00     0.014 C 
HETATM    4  C6  UNL     1      -1.981  -0.257   0.207  1.00  0.00    -0.009 C 
HETATM    5  C7  UNL     1      -1.982   0.679   1.303  1.00  0.00     0.044 C 
HETATM    6  C8  UNL     1      -0.758   1.200   1.771  1.00  0.00     0.035 C 
HETATM    7  C9  UNL     1      -3.159   1.219   1.863  1.00  0.00     0.257 C 
HETATM    8  O3  UNL     1      -3.194   1.490   3.095  1.00  0.00    -0.267 OA
HETATM    9  N2  UNL     1      -4.261   1.475   1.110  1.00  0.00    -0.322 N 
HETATM   10  C10 UNL     1      -4.244   1.528  -0.251  1.00  0.00     0.046 A 
HETATM   11  C11 UNL     1      -3.363   2.404  -0.914  1.00  0.00     0.030 A 
HETATM   12  C12 UNL     1      -3.380   2.504  -2.305  1.00  0.00     0.002 A 
HETATM   13  C13 UNL     1      -4.271   1.732  -3.049  1.00  0.00     0.001 A 
HETATM   14  C14 UNL     1      -5.130   0.838  -2.406  1.00  0.00     0.014 A 
HETATM   15  C15 UNL     1      -5.101   0.695  -1.002  1.00  0.00     0.002 A 
HETATM   16  C16 UNL     1      -5.909  -0.270  -0.361  1.00  0.00    -0.013 C 
HETATM   17  C17 UNL     1      -7.272  -0.303  -0.729  1.00  0.00     0.013 C 
HETATM   18  C18 UNL     1      -8.204  -0.998   0.030  1.00  0.00     0.001 C 
HETATM   19  C19 UNL     1      -7.805  -1.657   1.181  1.00  0.00     0.001 C 
HETATM   20  C20 UNL     1      -6.458  -1.706   1.532  1.00  0.00     0.013 C 
HETATM   21  C21 UNL     1      -5.448  -1.098   0.733  1.00  0.00    -0.014 C 
HETATM   22  C22 UNL     1      -4.056  -1.460   0.940  1.00  0.00    -0.014 C 
HETATM   23  C23 UNL     1      -3.775  -2.616   1.713  1.00  0.00     0.013 C 
HETATM   24  C24 UNL     1      -3.163  -3.709   1.083  1.00  0.00     0.001 C 
HETATM   25  C25 UNL     1      -2.772  -3.591  -0.256  1.00  0.00     0.001 C 
HETATM   26  C26 UNL     1      -2.773  -2.325  -0.856  1.00  0.00     0.013 C 
HETATM   27  C27 UNL     1      -3.057  -1.199  -0.047  1.00  0.00    -0.014 C 
HETATM   28  H5  UNL     1      -5.183   1.536   1.599  1.00  0.00     0.169 HD
ENDROOT
BRANCH   1  29
HETATM   29  C2  UNL     1       1.697   1.642   1.544  1.00  0.00     0.258 C 
HETATM   30  N1  UNL     1       2.974   1.298   0.975  1.00  0.00    -0.289 N 
HETATM   31  C1  UNL     1       4.108   2.183   1.017  1.00  0.00     0.258 C 
HETATM   32  H1  UNL     1       3.072   0.385   0.480  1.00  0.00     0.172 HD
HETATM   33  O1  UNL     1       3.961   3.372   1.412  1.00  0.00    -0.267 OA
HETATM   34  O2  UNL     1       1.648   2.479   2.487  1.00  0.00    -0.267 OA
BRANCH  31  35
HETATM   35  C28 UNL     1       5.444   1.739   0.550  1.00  0.00     0.034 A 
HETATM   36  C29 UNL     1       5.825   0.388   0.610  1.00  0.00     0.049 A 
HETATM   37  C30 UNL     1       7.084  -0.043   0.148  1.00  0.00     0.064 A 
HETATM   38  C31 UNL     1       7.996   0.927  -0.349  1.00  0.00     0.081 A 
HETATM   39  N4  UNL     1       7.363  -1.462   0.207  1.00  0.00    -0.323 N 
HETATM   40  C32 UNL     1       7.607   2.274  -0.404  1.00  0.00     0.035 A 
HETATM   41  N3  UNL     1       9.314   0.591  -0.797  1.00  0.00    -0.264 N 
HETATM   42  C33 UNL     1       6.353   2.677   0.045  1.00  0.00     0.019 A 
HETATM   43  O4  UNL     1       9.946  -0.532  -0.378  1.00  0.00    -0.271 OA
HETATM   44  H21 UNL     1       9.845   1.262  -1.399  1.00  0.00     0.194 HD
HETATM   45  C34 UNL     1       9.500  -1.567  -1.209  1.00  0.00     0.304 C 
HETATM   46  C35 UNL     1       8.303  -2.202  -0.590  1.00  0.00     0.248 C 
HETATM   47  O5  UNL     1       8.127  -3.439  -0.751  1.00  0.00    -0.271 OA
HETATM   48  H24 UNL     1       6.696  -2.051   0.756  1.00  0.00     0.169 HD
ENDBRANCH  31  35
ENDBRANCH   1  29
TORSDOF 2
