REMARK  3 active torsions:
REMARK  status: ('A' for Active; 'I' for Inactive)
REMARK       I    between atoms: C2_2  and  N1_4 
REMARK    1  A    between atoms: C12_15  and  C13_16 
REMARK    2  A    between atoms: C16_19  and  O2_20 
REMARK    3  A    between atoms: O2_20  and  C17_21 
ROOT
HETATM    1  C1  UNL     1      -2.266  -2.532  -1.921  1.00  0.00     0.118 C 
HETATM    2  C2  UNL     1      -2.200  -1.078  -1.584  1.00  0.00     0.225 C 
HETATM    3  O1  UNL     1      -2.261  -0.225  -2.510  1.00  0.00    -0.273 OA
HETATM    4  N1  UNL     1      -1.923  -0.665  -0.237  1.00  0.00    -0.283 N 
HETATM    5  C3  UNL     1      -2.719   0.295   0.534  1.00  0.00     0.068 A 
HETATM    6  C4  UNL     1      -3.714   1.040  -0.140  1.00  0.00     0.032 A 
HETATM    7  C5  UNL     1      -4.460   2.022   0.507  1.00  0.00     0.002 A 
HETATM    8  C6  UNL     1      -4.257   2.284   1.853  1.00  0.00     0.002 A 
HETATM    9  C7  UNL     1      -3.322   1.549   2.573  1.00  0.00     0.031 A 
HETATM   10  C8  UNL     1      -2.537   0.554   1.965  1.00  0.00     0.056 A 
HETATM   11  N2  UNL     1      -1.734  -0.246   2.886  1.00  0.00    -0.384 N 
HETATM   12  C9  UNL     1      -0.271  -0.403   2.850  1.00  0.00     0.157 C 
HETATM   13  C10 UNL     1      -0.002  -1.001   1.561  1.00  0.00    -0.024 A 
HETATM   14  C11 UNL     1      -0.709  -1.078   0.337  1.00  0.00     0.038 A 
HETATM   15  C12 UNL     1       0.556  -1.659   0.460  1.00  0.00     0.102 A 
HETATM   16  H8  UNL     1      -2.199  -0.554   3.769  1.00  0.00     0.160 HD
ENDROOT
BRANCH  15  17
HETATM   17  C13 UNL     1       1.654  -0.894  -0.227  1.00  0.00    -0.044 A 
HETATM   18  C14 UNL     1       1.592  -0.650  -1.608  1.00  0.00     0.011 A 
HETATM   19  C15 UNL     1       2.635   0.019  -2.254  1.00  0.00     0.037 A 
HETATM   20  C16 UNL     1       3.766   0.433  -1.541  1.00  0.00     0.078 A 
HETATM   21  C18 UNL     1       3.839   0.170  -0.159  1.00  0.00     0.037 A 
HETATM   22  C19 UNL     1       2.794  -0.496   0.488  1.00  0.00     0.011 A 
BRANCH  20  23
HETATM   23  O2  UNL     1       4.787   1.094  -2.243  1.00  0.00    -0.255 OA
BRANCH  23  24
HETATM   24  C17 UNL     1       6.007   1.564  -1.675  1.00  0.00     0.530 C 
HETATM   25  F1  UNL     1       5.746   2.512  -0.702  1.00  0.00    -0.144 F 
HETATM   26  F2  UNL     1       6.716   0.508  -1.128  1.00  0.00    -0.144 F 
HETATM   27  F3  UNL     1       6.771   2.145  -2.669  1.00  0.00    -0.144 F 
ENDBRANCH  23  24
ENDBRANCH  20  23
ENDBRANCH  15  17
TORSDOF 3
