REMARK  3 active torsions:
REMARK  status: ('A' for Active; 'I' for Inactive)
REMARK    1  A    between atoms: O1_2  and  C2_3 
REMARK    2  A    between atoms: C6_7  and  N1_8 
REMARK       I    between atoms: N1_8  and  C7_9 
REMARK       I    between atoms: C7_9  and  N2_11 
REMARK    3  A    between atoms: C17_22  and  C18_23 
ROOT
HETATM    1  N1  UNL     1       2.013  -0.268  -0.772  1.00  0.00    -0.336 N 
HETATM    2  C7  UNL     1       1.007   0.663  -0.331  1.00  0.00     0.319 C 
HETATM    3  O2  UNL     1       1.355   1.829   0.003  1.00  0.00    -0.247 OA
HETATM    4  N2  UNL     1      -0.392   0.288  -0.247  1.00  0.00    -0.319 N 
HETATM    5  C8  UNL     1      -0.878  -0.968  -0.831  1.00  0.00     0.160 C 
HETATM    6  C9  UNL     1      -0.752  -2.085   0.208  1.00  0.00     0.143 C 
HETATM    7  C10 UNL     1      -1.594  -3.302  -0.176  1.00  0.00     0.042 C 
HETATM    8  O3  UNL     1      -1.131  -1.613   1.503  1.00  0.00    -0.344 OA
HETATM    9  C11 UNL     1      -2.286  -0.860   1.740  1.00  0.00     0.078 A 
HETATM   10  C12 UNL     1      -3.277  -1.428   2.551  1.00  0.00     0.037 A 
HETATM   11  C13 UNL     1      -4.443  -0.724   2.845  1.00  0.00     0.003 A 
HETATM   12  C14 UNL     1      -4.617   0.568   2.355  1.00  0.00     0.001 A 
HETATM   13  C15 UNL     1      -3.630   1.157   1.563  1.00  0.00     0.012 A 
HETATM   14  C16 UNL     1      -2.460   0.448   1.206  1.00  0.00     0.003 A 
HETATM   15  C17 UNL     1      -1.339   1.184   0.454  1.00  0.00     0.158 C 
HETATM   16  H12 UNL     1       1.742  -1.211  -1.123  1.00  0.00     0.164 HD
ENDROOT
BRANCH  15  17
HETATM   17  C18 UNL     1      -1.851   2.226  -0.531  1.00  0.00    -0.031 A 
HETATM   18  C19 UNL     1      -2.816   1.901  -1.505  1.00  0.00     0.009 A 
HETATM   19  C20 UNL     1      -3.243   2.862  -2.426  1.00  0.00     0.001 A 
HETATM   20  C21 UNL     1      -2.710   4.152  -2.392  1.00  0.00     0.000 A 
HETATM   21  C22 UNL     1      -1.754   4.487  -1.432  1.00  0.00     0.001 A 
HETATM   22  C23 UNL     1      -1.323   3.531  -0.508  1.00  0.00     0.009 A 
ENDBRANCH  15  17
BRANCH   1  23
HETATM   23  C6  UNL     1       3.451  -0.017  -0.604  1.00  0.00     0.115 C 
HETATM   24  C2  UNL     1       4.057  -0.981   0.422  1.00  0.00     0.143 C 
HETATM   25  C3  UNL     1       4.433  -2.228  -0.377  1.00  0.00     0.034 C 
HETATM   26  C4  UNL     1       4.574  -1.794  -1.837  1.00  0.00     0.005 C 
HETATM   27  C5  UNL     1       4.189  -0.321  -1.901  1.00  0.00     0.028 C 
BRANCH  24  28
HETATM   28  O1  UNL     1       3.140  -1.322   1.449  1.00  0.00    -0.389 OA
HETATM   29  C1  UNL     1       3.177  -0.359   2.478  1.00  0.00     0.202 C 
ENDBRANCH  24  28
ENDBRANCH   1  23
TORSDOF 3
