REMARK  2 active torsions:
REMARK  status: ('A' for Active; 'I' for Inactive)
REMARK       I    between atoms: C1_2  and  N1_3 
REMARK    1  A    between atoms: C1_2  and  C23_26 
REMARK       I    between atoms: N1_3  and  C2_4 
REMARK    2  A    between atoms: C2_4  and  C3_6 
ROOT
HETATM    1  O1  UNL     1       1.111  -1.266  -2.782  1.00  0.00    -0.267 OA
HETATM    2  C1  UNL     1       0.972  -0.816  -1.613  1.00  0.00     0.258 C 
HETATM    3  N1  UNL     1      -0.243  -0.142  -1.242  1.00  0.00    -0.289 N 
HETATM    4  C2  UNL     1      -1.388  -0.053  -2.107  1.00  0.00     0.259 C 
HETATM    5  O2  UNL     1      -1.447  -0.733  -3.170  1.00  0.00    -0.267 OA
HETATM    6  H1  UNL     1      -0.285   0.356  -0.321  1.00  0.00     0.172 HD
ENDROOT
BRANCH   2   7
HETATM    7  C23 UNL     1       2.083  -0.976  -0.649  1.00  0.00     0.033 A 
HETATM    8  C24 UNL     1       3.407  -1.018  -1.109  1.00  0.00     0.032 A 
HETATM    9  C25 UNL     1       4.485  -1.198  -0.219  1.00  0.00     0.010 A 
HETATM   10  C26 UNL     1       4.213  -1.313   1.157  1.00  0.00     0.087 A 
HETATM   11  C40 UNL     1       5.865  -1.369  -0.756  1.00  0.00    -0.012 A 
HETATM   12  C27 UNL     1       2.889  -1.309   1.614  1.00  0.00     0.039 A 
HETATM   13  O3  UNL     1       5.237  -1.404   2.096  1.00  0.00    -0.309 OA
HETATM   14  C28 UNL     1       1.832  -1.135   0.721  1.00  0.00     0.020 A 
HETATM   15  C29 UNL     1       6.184  -0.389   2.204  1.00  0.00     0.087 A 
HETATM   16  C30 UNL     1       6.330   0.251   3.442  1.00  0.00     0.038 A 
HETATM   17  C34 UNL     1       6.953   0.031   1.097  1.00  0.00     0.009 A 
HETATM   18  C31 UNL     1       7.170   1.358   3.571  1.00  0.00     0.003 A 
HETATM   19  C32 UNL     1       7.878   1.828   2.466  1.00  0.00     0.001 A 
HETATM   20  C33 UNL     1       7.779   1.168   1.239  1.00  0.00     0.015 A 
HETATM   21  C35 UNL     1       7.012  -0.779  -0.154  1.00  0.00    -0.012 A 
HETATM   22  C36 UNL     1       8.277  -0.989  -0.749  1.00  0.00     0.013 A 
HETATM   23  C37 UNL     1       8.413  -1.749  -1.910  1.00  0.00     0.001 A 
HETATM   24  C38 UNL     1       7.296  -2.334  -2.490  1.00  0.00     0.001 A 
HETATM   25  C39 UNL     1       6.037  -2.155  -1.918  1.00  0.00     0.013 A 
ENDBRANCH   2   7
BRANCH   4  26
HETATM   26  C3  UNL     1      -2.480   0.888  -1.793  1.00  0.00     0.039 A 
HETATM   27  C4  UNL     1      -2.167   2.259  -1.760  1.00  0.00     0.017 A 
HETATM   28  C5  UNL     1      -3.162   3.212  -1.559  1.00  0.00     0.002 A 
HETATM   29  C6  UNL     1      -4.481   2.813  -1.366  1.00  0.00     0.013 A 
HETATM   30  C7  UNL     1      -4.816   1.452  -1.355  1.00  0.00    -0.018 A 
HETATM   31  C8  UNL     1      -3.822   0.470  -1.599  1.00  0.00    -0.031 A 
HETATM   32  C22 UNL     1      -6.191   1.074  -0.956  1.00  0.00    -0.014 A 
HETATM   33  C9  UNL     1      -4.214  -1.002  -1.608  1.00  0.00     0.045 C 
HETATM   34  C10 UNL     1      -4.481  -1.631  -0.214  1.00  0.00     0.044 C 
HETATM   35  C11 UNL     1      -4.342  -0.693   0.972  1.00  0.00    -0.047 A 
HETATM   36  C12 UNL     1      -3.233  -0.820   1.829  1.00  0.00     0.008 A 
HETATM   37  C16 UNL     1      -5.332   0.276   1.263  1.00  0.00    -0.019 A 
HETATM   38  C13 UNL     1      -3.125  -0.023   2.970  1.00  0.00     0.001 A 
HETATM   39  C14 UNL     1      -4.116   0.912   3.268  1.00  0.00     0.001 A 
HETATM   40  C15 UNL     1      -5.213   1.068   2.415  1.00  0.00     0.013 A 
HETATM   41  C17 UNL     1      -6.444   0.532   0.324  1.00  0.00    -0.014 A 
HETATM   42  C18 UNL     1      -7.763   0.253   0.712  1.00  0.00     0.013 A 
HETATM   43  C19 UNL     1      -8.819   0.481  -0.171  1.00  0.00     0.001 A 
HETATM   44  C20 UNL     1      -8.569   1.002  -1.444  1.00  0.00     0.001 A 
HETATM   45  C21 UNL     1      -7.259   1.309  -1.834  1.00  0.00     0.013 A 
ENDBRANCH   4  26
TORSDOF 2
