REMARK  4 active torsions:
REMARK  status: ('A' for Active; 'I' for Inactive)
REMARK       I    between atoms: C1_2  and  N1_3 
REMARK    1  A    between atoms: C1_2  and  C9_13 
REMARK    2  A    between atoms: N1_3  and  C2_4 
REMARK    3  A    between atoms: C5_7  and  C6_8 
REMARK       I    between atoms: C6_8  and  N2_9 
REMARK    4  A    between atoms: C13_17  and  C14_18 
ROOT
HETATM    1  C9  UNL     1       0.642  -1.965   1.111  1.00  0.00     0.032 A 
HETATM    2  C10 UNL     1       0.205  -3.155   1.716  1.00  0.00     0.017 A 
HETATM    3  C11 UNL     1      -1.118  -3.290   2.139  1.00  0.00     0.002 A 
HETATM    4  C12 UNL     1      -2.018  -2.236   1.979  1.00  0.00     0.008 A 
HETATM    5  C13 UNL     1      -1.599  -1.019   1.407  1.00  0.00    -0.048 A 
HETATM    6  C25 UNL     1      -0.268  -0.901   0.964  1.00  0.00     0.025 A 
ENDROOT
BRANCH   1   7
HETATM    7  C1  UNL     1       2.046  -1.833   0.652  1.00  0.00     0.256 C 
HETATM    8  O1  UNL     1       2.922  -2.622   1.102  1.00  0.00    -0.267 OA
HETATM    9  N1  UNL     1       2.410  -0.854  -0.335  1.00  0.00    -0.323 N 
HETATM   10  H1  UNL     1       1.681  -0.554  -1.020  1.00  0.00     0.169 HD
BRANCH   9  11
HETATM   11  C2  UNL     1       3.753  -0.377  -0.531  1.00  0.00     0.035 A 
HETATM   12  C3  UNL     1       4.152   0.052  -1.804  1.00  0.00     0.030 A 
HETATM   13  C4  UNL     1       5.445   0.540  -2.018  1.00  0.00     0.019 A 
HETATM   14  C5  UNL     1       6.360   0.626  -0.953  1.00  0.00     0.032 A 
HETATM   15  C7  UNL     1       5.954   0.203   0.325  1.00  0.00     0.019 A 
HETATM   16  C8  UNL     1       4.661  -0.284   0.537  1.00  0.00     0.030 A 
BRANCH  14  17
HETATM   17  C6  UNL     1       7.738   1.135  -1.161  1.00  0.00     0.249 C 
HETATM   18  N2  UNL     1       8.062   1.990  -2.262  1.00  0.00    -0.366 N 
HETATM   19  H4  UNL     1       9.051   2.285  -2.417  1.00  0.00     0.159 HD
HETATM   20  H5  UNL     1       7.324   2.405  -2.871  1.00  0.00     0.159 HD
HETATM   21  O2  UNL     1       8.648   0.824  -0.346  1.00  0.00    -0.268 OA
ENDBRANCH  14  17
ENDBRANCH   9  11
ENDBRANCH   1   7
BRANCH   5  22
HETATM   22  C14 UNL     1      -2.568   0.140   1.192  1.00  0.00     0.059 C 
HETATM   23  C15 UNL     1      -3.556   0.295   2.373  1.00  0.00     0.092 C 
HETATM   24  C16 UNL     1      -4.038   1.716   2.510  1.00  0.00     0.128 C 
HETATM   25  O3  UNL     1      -3.722   2.366   3.496  1.00  0.00    -0.298 OA
HETATM   26  C17 UNL     1      -4.871   2.359   1.436  1.00  0.00     0.083 C 
HETATM   27  C18 UNL     1      -4.079   2.510   0.132  1.00  0.00     0.046 C 
HETATM   28  C19 UNL     1      -4.023   1.206  -0.635  1.00  0.00    -0.051 A 
HETATM   29  C20 UNL     1      -4.729   1.115  -1.849  1.00  0.00     0.007 A 
HETATM   30  C24 UNL     1      -3.319   0.070  -0.143  1.00  0.00    -0.043 A 
HETATM   31  C21 UNL     1      -4.749  -0.073  -2.576  1.00  0.00     0.001 A 
HETATM   32  C22 UNL     1      -4.076  -1.192  -2.098  1.00  0.00     0.001 A 
HETATM   33  C23 UNL     1      -3.374  -1.129  -0.894  1.00  0.00     0.008 A 
ENDBRANCH   5  22
TORSDOF 4
