REMARK  6 active torsions:
REMARK  status: ('A' for Active; 'I' for Inactive)
REMARK       I    between atoms: C1_2  and  N1_3 
REMARK    1  A    between atoms: C1_2  and  C27_30 
REMARK       I    between atoms: N1_3  and  C2_4 
REMARK    2  A    between atoms: C2_4  and  C3_6 
REMARK    3  A    between atoms: C6_9  and  C26_29 
REMARK    4  A    between atoms: C7_10  and  C9_12 
REMARK    5  A    between atoms: C14_17  and  C15_18 
REMARK    6  A    between atoms: C20_23  and  C21_24 
ROOT
HETATM    1  O1  UNL     1       1.924  -2.923   0.123  1.00  0.00    -0.267 OA
HETATM    2  C1  UNL     1       1.636  -1.699  -0.000  1.00  0.00     0.258 C 
HETATM    3  N1  UNL     1       0.259  -1.284  -0.074  1.00  0.00    -0.289 N 
HETATM    4  C2  UNL     1      -0.852  -2.194   0.049  1.00  0.00     0.258 C 
HETATM    5  O2  UNL     1      -0.655  -3.387   0.410  1.00  0.00    -0.267 OA
HETATM    6  H1  UNL     1       0.066  -0.303  -0.372  1.00  0.00     0.172 HD
ENDROOT
BRANCH   4   7
HETATM    7  C3  UNL     1      -2.229  -1.766  -0.291  1.00  0.00     0.033 A 
HETATM    8  C4  UNL     1      -3.127  -2.696  -0.838  1.00  0.00     0.018 A 
HETATM    9  C5  UNL     1      -4.408  -2.301  -1.222  1.00  0.00     0.014 A 
HETATM   10  C6  UNL     1      -4.830  -0.977  -1.044  1.00  0.00    -0.014 A 
HETATM   11  C7  UNL     1      -3.952  -0.041  -0.454  1.00  0.00    -0.013 A 
HETATM   12  C8  UNL     1      -2.655  -0.442  -0.090  1.00  0.00     0.030 A 
BRANCH  10  13
HETATM   13  C26 UNL     1      -6.168  -0.580  -1.534  1.00  0.00    -0.014 A 
HETATM   14  C21 UNL     1      -7.203  -0.212  -0.645  1.00  0.00    -0.014 A 
HETATM   15  C22 UNL     1      -8.467   0.123  -1.157  1.00  0.00     0.013 A 
HETATM   16  C23 UNL     1      -8.701   0.105  -2.533  1.00  0.00     0.001 A 
HETATM   17  C24 UNL     1      -7.680  -0.261  -3.411  1.00  0.00     0.001 A 
HETATM   18  C25 UNL     1      -6.421  -0.607  -2.915  1.00  0.00     0.013 A 
BRANCH  14  19
HETATM   19  C20 UNL     1      -6.993  -0.210   0.820  1.00  0.00    -0.014 A 
HETATM   20  C15 UNL     1      -6.115   0.709   1.438  1.00  0.00    -0.014 A 
HETATM   21  C16 UNL     1      -5.970   0.692   2.836  1.00  0.00     0.013 A 
HETATM   22  C17 UNL     1      -6.679  -0.230   3.609  1.00  0.00     0.001 A 
HETATM   23  C18 UNL     1      -7.548  -1.137   2.998  1.00  0.00     0.001 A 
HETATM   24  C19 UNL     1      -7.708  -1.125   1.611  1.00  0.00     0.013 A 
BRANCH  20  25
HETATM   25  C14 UNL     1      -5.383   1.727   0.650  1.00  0.00    -0.014 A 
HETATM   26  C9  UNL     1      -4.351   1.370  -0.250  1.00  0.00    -0.014 A 
HETATM   27  C10 UNL     1      -3.661   2.379  -0.943  1.00  0.00     0.013 A 
HETATM   28  C11 UNL     1      -3.997   3.721  -0.759  1.00  0.00     0.001 A 
HETATM   29  C12 UNL     1      -5.017   4.072   0.125  1.00  0.00     0.001 A 
HETATM   30  C13 UNL     1      -5.702   3.082   0.832  1.00  0.00     0.013 A 
ENDBRANCH  20  25
ENDBRANCH  14  19
ENDBRANCH  10  13
ENDBRANCH   4   7
BRANCH   2  31
HETATM   31  C27 UNL     1       2.734  -0.713  -0.121  1.00  0.00     0.033 A 
HETATM   32  C28 UNL     1       3.959  -1.095  -0.688  1.00  0.00     0.030 A 
HETATM   33  C29 UNL     1       5.015  -0.180  -0.812  1.00  0.00    -0.018 A 
HETATM   34  C30 UNL     1       4.849   1.149  -0.354  1.00  0.00    -0.047 A 
HETATM   35  C46 UNL     1       6.305  -0.669  -1.349  1.00  0.00    -0.014 A 
HETATM   36  C31 UNL     1       3.625   1.519   0.232  1.00  0.00     0.009 A 
HETATM   37  C33 UNL     1       5.925   2.204  -0.544  1.00  0.00     0.044 C 
HETATM   38  C32 UNL     1       2.580   0.601   0.346  1.00  0.00     0.017 A 
HETATM   39  C34 UNL     1       7.241   1.991   0.244  1.00  0.00     0.044 C 
HETATM   40  C35 UNL     1       7.199   0.897   1.290  1.00  0.00    -0.047 A 
HETATM   41  C36 UNL     1       7.029   1.231   2.645  1.00  0.00     0.008 A 
HETATM   42  C40 UNL     1       7.354  -0.461   0.926  1.00  0.00    -0.019 A 
HETATM   43  C37 UNL     1       7.044   0.237   3.626  1.00  0.00     0.001 A 
HETATM   44  C38 UNL     1       7.230  -1.099   3.265  1.00  0.00     0.001 A 
HETATM   45  C39 UNL     1       7.383  -1.449   1.922  1.00  0.00     0.013 A 
HETATM   46  C41 UNL     1       7.417  -0.861  -0.497  1.00  0.00    -0.014 A 
HETATM   47  C42 UNL     1       8.592  -1.434  -1.008  1.00  0.00     0.013 A 
HETATM   48  C43 UNL     1       8.668  -1.799  -2.355  1.00  0.00     0.001 A 
HETATM   49  C44 UNL     1       7.572  -1.605  -3.198  1.00  0.00     0.001 A 
HETATM   50  C45 UNL     1       6.390  -1.051  -2.697  1.00  0.00     0.013 A 
ENDBRANCH   2  31
TORSDOF 6
