REMARK  6 active torsions:
REMARK  status: ('A' for Active; 'I' for Inactive)
REMARK    1  A    between atoms: C1_2  and  C2_3 
REMARK    2  A    between atoms: C1_2  and  C22_23 
REMARK    3  A    between atoms: C25_26  and  C45_46 
REMARK    4  A    between atoms: C26_27  and  C28_29 
REMARK    5  A    between atoms: C33_34  and  C34_35 
REMARK    6  A    between atoms: C39_40  and  C40_41 
ROOT
HETATM    1  C22 UNL     1      -0.694   0.756   1.316  1.00  0.00     0.016 A 
HETATM    2  C23 UNL     1      -0.492  -0.617   1.102  1.00  0.00     0.016 A 
HETATM    3  C24 UNL     1      -1.571  -1.502   1.117  1.00  0.00     0.014 A 
HETATM    4  C25 UNL     1      -2.872  -1.034   1.345  1.00  0.00    -0.014 A 
HETATM    5  C26 UNL     1      -3.082   0.340   1.593  1.00  0.00    -0.013 A 
HETATM    6  C27 UNL     1      -1.989   1.222   1.588  1.00  0.00     0.028 A 
ENDROOT
BRANCH   1   7
HETATM    7  C1  UNL     1       0.444   1.706   1.277  1.00  0.00     0.192 C 
HETATM    8  O1  UNL     1       0.451   2.682   2.076  1.00  0.00    -0.287 OA
BRANCH   7   9
HETATM    9  C2  UNL     1       1.569   1.548   0.323  1.00  0.00     0.015 A 
HETATM   10  C3  UNL     1       1.365   0.966  -0.940  1.00  0.00     0.016 A 
HETATM   11  C4  UNL     1       2.430   0.801  -1.824  1.00  0.00     0.014 A 
HETATM   12  C5  UNL     1       3.715   1.231  -1.473  1.00  0.00    -0.019 A 
HETATM   13  C6  UNL     1       3.923   1.876  -0.234  1.00  0.00    -0.046 A 
HETATM   14  C21 UNL     1       4.851   0.949  -2.377  1.00  0.00    -0.014 A 
HETATM   15  C7  UNL     1       2.850   2.016   0.660  1.00  0.00     0.023 A 
HETATM   16  C8  UNL     1       5.288   2.415   0.133  1.00  0.00     0.044 C 
HETATM   17  C9  UNL     1       6.254   1.373   0.743  1.00  0.00     0.044 C 
HETATM   18  C10 UNL     1       5.872  -0.086   0.558  1.00  0.00    -0.047 A 
HETATM   19  C11 UNL     1       5.668  -0.880   1.703  1.00  0.00     0.008 A 
HETATM   20  C15 UNL     1       5.793  -0.696  -0.721  1.00  0.00    -0.019 A 
HETATM   21  C12 UNL     1       5.403  -2.246   1.588  1.00  0.00     0.001 A 
HETATM   22  C13 UNL     1       5.340  -2.841   0.330  1.00  0.00     0.001 A 
HETATM   23  C14 UNL     1       5.530  -2.072  -0.817  1.00  0.00     0.013 A 
HETATM   24  C16 UNL     1       5.893   0.081  -1.977  1.00  0.00    -0.014 A 
HETATM   25  C17 UNL     1       6.971  -0.148  -2.846  1.00  0.00     0.013 A 
HETATM   26  C18 UNL     1       7.024   0.486  -4.090  1.00  0.00     0.001 A 
HETATM   27  C19 UNL     1       5.992   1.341  -4.484  1.00  0.00     0.001 A 
HETATM   28  C20 UNL     1       4.908   1.570  -3.634  1.00  0.00     0.013 A 
ENDBRANCH   7   9
ENDBRANCH   1   7
BRANCH   5  29
HETATM   29  C28 UNL     1      -4.432   0.875   1.882  1.00  0.00    -0.014 A 
HETATM   30  C29 UNL     1      -4.702   1.393   3.158  1.00  0.00     0.013 A 
HETATM   31  C30 UNL     1      -5.957   1.929   3.453  1.00  0.00     0.001 A 
HETATM   32  C31 UNL     1      -6.951   1.964   2.473  1.00  0.00     0.001 A 
HETATM   33  C32 UNL     1      -6.691   1.465   1.195  1.00  0.00     0.013 A 
HETATM   34  C33 UNL     1      -5.438   0.911   0.889  1.00  0.00    -0.014 A 
BRANCH  34  35
HETATM   35  C34 UNL     1      -5.188   0.411  -0.482  1.00  0.00    -0.014 A 
HETATM   36  C35 UNL     1      -5.198   1.321  -1.552  1.00  0.00     0.013 A 
HETATM   37  C36 UNL     1      -4.992   0.877  -2.860  1.00  0.00     0.001 A 
HETATM   38  C37 UNL     1      -4.783  -0.478  -3.113  1.00  0.00     0.001 A 
HETATM   39  C38 UNL     1      -4.781  -1.396  -2.061  1.00  0.00     0.013 A 
HETATM   40  C39 UNL     1      -4.975  -0.963  -0.739  1.00  0.00    -0.014 A 
BRANCH  40  41
HETATM   41  C40 UNL     1      -4.998  -1.966   0.351  1.00  0.00    -0.014 A 
HETATM   42  C41 UNL     1      -6.019  -2.929   0.367  1.00  0.00     0.013 A 
HETATM   43  C42 UNL     1      -6.053  -3.907   1.363  1.00  0.00     0.001 A 
HETATM   44  C43 UNL     1      -5.063  -3.941   2.345  1.00  0.00     0.001 A 
HETATM   45  C44 UNL     1      -4.035  -2.996   2.336  1.00  0.00     0.013 A 
HETATM   46  C45 UNL     1      -3.994  -2.000   1.347  1.00  0.00    -0.014 A 
ENDBRANCH  40  41
ENDBRANCH  34  35
ENDBRANCH   5  29
TORSDOF 6
