REMARK  7 active torsions:
REMARK  status: ('A' for Active; 'I' for Inactive)
REMARK       I    between atoms: C1_2  and  N1_3 
REMARK       I    between atoms: C1_2  and  N3_17 
REMARK       I    between atoms: N1_3  and  C2_4 
REMARK    1  A    between atoms: C2_4  and  C3_6 
REMARK    2  A    between atoms: N3_17  and  C13_18 
REMARK    3  A    between atoms: C16_21  and  C42_47 
REMARK    4  A    between atoms: C17_22  and  C19_24 
REMARK    5  A    between atoms: C24_29  and  C25_30 
REMARK    6  A    between atoms: C30_35  and  C31_36 
REMARK    7  A    between atoms: C36_41  and  C37_42 
ROOT
HETATM    1  C13 UNL     1       0.014  -1.096  -0.862  1.00  0.00     0.037 A 
HETATM    2  C14 UNL     1      -0.878  -1.873  -1.607  1.00  0.00     0.030 A 
HETATM    3  C15 UNL     1      -2.197  -2.038  -1.185  1.00  0.00     0.015 A 
HETATM    4  C16 UNL     1      -2.686  -1.375  -0.039  1.00  0.00    -0.014 A 
HETATM    5  C17 UNL     1      -1.801  -0.493   0.656  1.00  0.00    -0.012 A 
HETATM    6  C18 UNL     1      -0.455  -0.402   0.262  1.00  0.00     0.042 A 
ENDROOT
BRANCH   1   7
HETATM    7  N3  UNL     1       1.370  -0.947  -1.313  1.00  0.00    -0.309 N 
HETATM    8  C1  UNL     1       2.498  -0.892  -0.427  1.00  0.00     0.327 C 
HETATM    9  O1  UNL     1       2.355  -1.182   0.793  1.00  0.00    -0.247 OA
HETATM   10  N1  UNL     1       3.788  -0.535  -0.947  1.00  0.00    -0.275 N 
HETATM   11  C2  UNL     1       5.023  -0.768  -0.242  1.00  0.00     0.261 C 
HETATM   12  H1  UNL     1       3.810  -0.071  -1.880  1.00  0.00     0.173 HD
HETATM   13  O2  UNL     1       4.994  -1.185   0.949  1.00  0.00    -0.267 OA
HETATM   14  H10 UNL     1       1.560  -0.998  -2.339  1.00  0.00     0.170 HD
BRANCH  11  15
HETATM   15  C3  UNL     1       6.344  -0.518  -0.879  1.00  0.00     0.059 C 
HETATM   16  C4  UNL     1       6.496  -0.563  -2.231  1.00  0.00     0.019 C 
HETATM   17  C5  UNL     1       7.714  -0.251  -3.067  1.00  0.00     0.003 C 
HETATM   18  C6  UNL     1       8.976   0.041  -2.679  1.00  0.00     0.029 C 
HETATM   19  C7  UNL     1       9.403   0.018  -1.280  1.00  0.00     0.032 C 
HETATM   20  C8  UNL     1      10.045   1.063  -0.744  1.00  0.00     0.029 C 
HETATM   21  N2  UNL     1       8.727  -0.876  -0.427  1.00  0.00    -0.355 N 
HETATM   22  C9  UNL     1       9.940   1.383   0.704  1.00  0.00     0.002 C 
HETATM   23  C10 UNL     1       8.820   1.212   1.443  1.00  0.00     0.002 C 
HETATM   24  C11 UNL     1       7.539   0.668   0.916  1.00  0.00     0.030 C 
HETATM   25  C12 UNL     1       7.509  -0.309  -0.002  1.00  0.00     0.048 C 
HETATM   26  H9  UNL     1       8.724  -1.886  -0.693  1.00  0.00     0.166 HD
ENDBRANCH  11  15
ENDBRANCH   1   7
BRANCH   5  27
HETATM   27  C19 UNL     1      -2.286   0.495   1.525  1.00  0.00    -0.014 A 
HETATM   28  C20 UNL     1      -1.926   0.505   2.881  1.00  0.00     0.013 A 
HETATM   29  C21 UNL     1      -2.451   1.479   3.734  1.00  0.00     0.001 A 
HETATM   30  C22 UNL     1      -3.309   2.465   3.235  1.00  0.00     0.001 A 
HETATM   31  C23 UNL     1      -3.628   2.500   1.874  1.00  0.00     0.013 A 
HETATM   32  C24 UNL     1      -3.121   1.518   1.013  1.00  0.00    -0.014 A 
BRANCH  32  33
HETATM   33  C25 UNL     1      -3.269   1.637  -0.373  1.00  0.00    -0.014 A 
HETATM   34  C26 UNL     1      -2.189   2.208  -1.077  1.00  0.00     0.013 A 
HETATM   35  C27 UNL     1      -2.086   2.079  -2.458  1.00  0.00     0.001 A 
HETATM   36  C28 UNL     1      -3.047   1.361  -3.161  1.00  0.00     0.001 A 
HETATM   37  C29 UNL     1      -4.136   0.805  -2.490  1.00  0.00     0.013 A 
HETATM   38  C30 UNL     1      -4.277   0.929  -1.087  1.00  0.00    -0.014 A 
BRANCH  38  39
HETATM   39  C31 UNL     1      -5.513   0.572  -0.493  1.00  0.00    -0.014 C 
HETATM   40  C32 UNL     1      -6.659   1.114  -1.130  1.00  0.00     0.013 C 
HETATM   41  C33 UNL     1      -7.894   1.153  -0.503  1.00  0.00     0.001 C 
HETATM   42  C34 UNL     1      -8.027   0.666   0.782  1.00  0.00     0.001 C 
HETATM   43  C35 UNL     1      -6.948   0.061   1.415  1.00  0.00     0.013 C 
HETATM   44  C36 UNL     1      -5.671  -0.073   0.789  1.00  0.00    -0.014 C 
BRANCH  44  45
HETATM   45  C37 UNL     1      -4.741  -1.019   1.365  1.00  0.00    -0.014 C 
HETATM   46  C38 UNL     1      -4.941  -1.444   2.704  1.00  0.00     0.013 C 
HETATM   47  C39 UNL     1      -4.733  -2.772   3.071  1.00  0.00     0.001 C 
HETATM   48  C40 UNL     1      -4.287  -3.684   2.122  1.00  0.00     0.001 C 
HETATM   49  C41 UNL     1      -3.859  -3.228   0.877  1.00  0.00     0.013 C 
HETATM   50  C42 UNL     1      -3.885  -1.845   0.567  1.00  0.00    -0.014 C 
ENDBRANCH  44  45
ENDBRANCH  38  39
ENDBRANCH  32  33
ENDBRANCH   5  27
TORSDOF 7
