REMARK  4 active torsions:
REMARK  status: ('A' for Active; 'I' for Inactive)
REMARK       I    between atoms: C1_2  and  N1_3 
REMARK    1  A    between atoms: C1_2  and  C19_24 
REMARK       I    between atoms: N1_3  and  C2_4 
REMARK    2  A    between atoms: C2_4  and  C3_6 
REMARK    3  A    between atoms: C11_14  and  C12_15 
REMARK    4  A    between atoms: C28_33  and  C29_34 
ROOT
HETATM    1  O1  UNL     1      -0.566   3.247   0.248  1.00  0.00    -0.267 OA
HETATM    2  C1  UNL     1       0.106   2.186   0.129  1.00  0.00     0.258 C 
HETATM    3  N1  UNL     1      -0.474   0.922   0.502  1.00  0.00    -0.289 N 
HETATM    4  C2  UNL     1      -1.705   0.797   1.234  1.00  0.00     0.261 C 
HETATM    5  O2  UNL     1      -2.290   1.820   1.681  1.00  0.00    -0.267 OA
HETATM    6  H1  UNL     1      -0.043   0.052   0.119  1.00  0.00     0.172 HD
ENDROOT
BRANCH   2   7
HETATM    7  C19 UNL     1       1.477   2.255  -0.431  1.00  0.00     0.033 A 
HETATM    8  C20 UNL     1       2.427   1.261  -0.137  1.00  0.00     0.030 A 
HETATM    9  C21 UNL     1       3.734   1.324  -0.666  1.00  0.00    -0.014 A 
HETATM   10  C22 UNL     1       4.072   2.404  -1.523  1.00  0.00    -0.025 A 
HETATM   11  C28 UNL     1       4.708   0.329  -0.387  1.00  0.00    -0.015 A 
HETATM   12  C23 UNL     1       3.127   3.400  -1.800  1.00  0.00     0.013 A 
HETATM   13  C25 UNL     1       5.350   2.471  -2.096  1.00  0.00     0.012 A 
HETATM   14  C24 UNL     1       1.845   3.330  -1.255  1.00  0.00     0.018 A 
HETATM   15  C26 UNL     1       6.291   1.477  -1.834  1.00  0.00     0.002 A 
HETATM   16  C27 UNL     1       5.974   0.414  -0.989  1.00  0.00     0.013 A 
BRANCH  11  17
HETATM   17  C29 UNL     1       4.447  -0.804   0.530  1.00  0.00    -0.025 A 
HETATM   18  C30 UNL     1       4.465  -2.122   0.046  1.00  0.00     0.012 A 
HETATM   19  C31 UNL     1       4.225  -3.193   0.912  1.00  0.00     0.001 A 
HETATM   20  C32 UNL     1       3.974  -2.955   2.267  1.00  0.00     0.000 A 
HETATM   21  C33 UNL     1       3.967  -1.647   2.758  1.00  0.00     0.001 A 
HETATM   22  C34 UNL     1       4.208  -0.573   1.895  1.00  0.00     0.012 A 
ENDBRANCH  11  17
ENDBRANCH   2   7
BRANCH   4  23
HETATM   23  C3  UNL     1      -2.330  -0.530   1.432  1.00  0.00     0.067 C 
HETATM   24  C4  UNL     1      -1.564  -1.606   1.759  1.00  0.00     0.020 C 
HETATM   25  C5  UNL     1      -1.977  -3.048   1.955  1.00  0.00     0.004 C 
HETATM   26  C6  UNL     1      -3.214  -3.594   1.939  1.00  0.00     0.037 C 
HETATM   27  C7  UNL     1      -4.420  -2.783   1.790  1.00  0.00     0.076 C 
HETATM   28  C8  UNL     1      -5.434  -3.115   0.989  1.00  0.00     0.037 C 
HETATM   29  O3  UNL     1      -4.361  -1.500   2.253  1.00  0.00    -0.309 OA
HETATM   30  C9  UNL     1      -6.330  -2.060   0.433  1.00  0.00     0.004 C 
HETATM   31  C10 UNL     1      -5.949  -0.788   0.141  1.00  0.00     0.015 C 
HETATM   32  C11 UNL     1      -4.565  -0.237   0.312  1.00  0.00     0.009 C 
HETATM   33  C18 UNL     1      -3.794  -0.657   1.341  1.00  0.00     0.102 C 
BRANCH  32  34
HETATM   34  C12 UNL     1      -4.041   0.643  -0.751  1.00  0.00    -0.023 A 
HETATM   35  C13 UNL     1      -4.544   1.945  -0.894  1.00  0.00     0.015 A 
HETATM   36  C14 UNL     1      -4.028   2.793  -1.879  1.00  0.00     0.043 A 
HETATM   37  C15 UNL     1      -3.015   2.343  -2.732  1.00  0.00     0.116 A 
HETATM   38  F1  UNL     1      -2.511   3.169  -3.681  1.00  0.00    -0.206 F 
HETATM   39  C16 UNL     1      -2.524   1.040  -2.607  1.00  0.00     0.043 A 
HETATM   40  C17 UNL     1      -3.040   0.189  -1.625  1.00  0.00     0.015 A 
ENDBRANCH  32  34
ENDBRANCH   4  23
TORSDOF 4
