REMARK  2 active torsions:
REMARK  status: ('A' for Active; 'I' for Inactive)
REMARK    1  A    between atoms: S1_2  and  C1_4 
REMARK    2  A    between atoms: S1_2  and  C16_19 
ROOT
HETATM    1  O1  UNL     1       1.753   0.665   2.723  1.00  0.00    -0.217 OA
HETATM    2  S1  UNL     1       1.283   0.915   1.316  1.00  0.00     0.207 S 
HETATM    3  O2  UNL     1       1.568   2.346   0.957  1.00  0.00    -0.217 OA
ENDROOT
BRANCH   2   4
HETATM    4  C1  UNL     1      -0.456   0.645   1.229  1.00  0.00     0.064 A 
HETATM    5  C2  UNL     1      -1.081  -0.228   2.126  1.00  0.00     0.025 A 
HETATM    6  C3  UNL     1      -2.452  -0.473   2.030  1.00  0.00     0.014 A 
HETATM    7  C4  UNL     1      -3.220   0.148   1.032  1.00  0.00    -0.019 A 
HETATM    8  C5  UNL     1      -2.593   1.043   0.131  1.00  0.00    -0.046 A 
HETATM    9  C15 UNL     1      -4.667  -0.175   0.902  1.00  0.00    -0.019 A 
HETATM   10  C6  UNL     1      -1.212   1.274   0.232  1.00  0.00     0.031 A 
HETATM   11  C7  UNL     1      -3.399   1.761  -0.927  1.00  0.00     0.040 C 
HETATM   12  C8  UNL     1      -3.856   0.825  -2.062  1.00  0.00     0.009 C 
HETATM   13  C9  UNL     1      -4.363  -0.552  -1.597  1.00  0.00     0.040 C 
HETATM   14  C10 UNL     1      -5.234  -0.470  -0.363  1.00  0.00    -0.047 A 
HETATM   15  C11 UNL     1      -6.614  -0.711  -0.464  1.00  0.00     0.008 A 
HETATM   16  C12 UNL     1      -7.422  -0.682   0.675  1.00  0.00     0.001 A 
HETATM   17  C13 UNL     1      -6.862  -0.410   1.924  1.00  0.00     0.001 A 
HETATM   18  C14 UNL     1      -5.493  -0.156   2.039  1.00  0.00     0.013 A 
ENDBRANCH   2   4
BRANCH   2  19
HETATM   19  C16 UNL     1       2.153  -0.155   0.213  1.00  0.00     0.071 A 
HETATM   20  C17 UNL     1       1.471  -1.125  -0.551  1.00  0.00     0.024 A 
HETATM   21  C18 UNL     1       2.175  -1.973  -1.427  1.00  0.00     0.002 A 
HETATM   22  C19 UNL     1       3.567  -1.869  -1.552  1.00  0.00     0.013 A 
HETATM   23  C20 UNL     1       4.227  -0.907  -0.788  1.00  0.00    -0.017 A 
HETATM   24  C21 UNL     1       3.547  -0.066   0.076  1.00  0.00    -0.021 A 
HETATM   25  C28 UNL     1       5.637  -0.592  -0.719  1.00  0.00    -0.019 A 
HETATM   26  C22 UNL     1       4.495   0.870   0.777  1.00  0.00     0.080 A 
HETATM   27  C23 UNL     1       5.805   0.438   0.186  1.00  0.00    -0.043 A 
HETATM   28  C24 UNL     1       7.074   0.953   0.455  1.00  0.00     0.008 A 
HETATM   29  C25 UNL     1       8.179   0.401  -0.215  1.00  0.00     0.001 A 
HETATM   30  C26 UNL     1       8.001  -0.649  -1.137  1.00  0.00     0.001 A 
HETATM   31  C27 UNL     1       6.718  -1.157  -1.397  1.00  0.00     0.013 A 
ENDBRANCH   2  19
TORSDOF 2
