REMARK  3 active torsions:
REMARK  status: ('A' for Active; 'I' for Inactive)
REMARK    1  A    between atoms: C4_4  and  N1_5 
REMARK    2  A    between atoms: C5_6  and  C6_7 
REMARK    3  A    between atoms: C22_23  and  C23_24 
ROOT
HETATM    1  C1  UNL     1      -3.929  -0.273  -3.996  1.00  0.00     0.048 C 
HETATM    2  C2  UNL     1      -3.091  -0.597  -2.794  1.00  0.00    -0.059 A 
HETATM    3  C3  UNL     1      -2.671  -1.914  -2.572  1.00  0.00     0.036 A 
HETATM    4  C4  UNL     1      -1.915  -2.246  -1.441  1.00  0.00     0.038 A 
HETATM    5  C5  UNL     1      -1.586  -1.241  -0.500  1.00  0.00     0.015 A 
HETATM    6  C22 UNL     1      -2.015   0.091  -0.720  1.00  0.00     0.024 A 
HETATM    7  C27 UNL     1      -2.772   0.396  -1.861  1.00  0.00     0.023 A 
ENDROOT
BRANCH   5   8
HETATM    8  C6  UNL     1      -0.779  -1.577   0.699  1.00  0.00    -0.012 A 
HETATM    9  C7  UNL     1      -1.398  -2.243   1.766  1.00  0.00     0.013 A 
HETATM   10  C8  UNL     1      -0.684  -2.531   2.929  1.00  0.00     0.002 A 
HETATM   11  C9  UNL     1       0.648  -2.135   3.051  1.00  0.00     0.012 A 
HETATM   12  C10 UNL     1       1.285  -1.443   2.011  1.00  0.00    -0.025 A 
HETATM   13  C11 UNL     1       0.583  -1.218   0.795  1.00  0.00    -0.015 A 
HETATM   14  C20 UNL     1       2.710  -1.062   2.198  1.00  0.00     0.012 C 
HETATM   15  C12 UNL     1       1.242  -0.518  -0.323  1.00  0.00     0.014 C 
HETATM   16  C13 UNL     1       2.351  -0.989  -0.895  1.00  0.00     0.013 C 
HETATM   17  C14 UNL     1       3.384  -0.013  -1.214  1.00  0.00    -0.025 A 
HETATM   18  C15 UNL     1       3.930   1.243  -0.841  1.00  0.00    -0.025 A 
HETATM   19  C21 UNL     1       4.490   0.462  -1.890  1.00  0.00     0.024 A 
HETATM   20  C16 UNL     1       3.859   2.297  -0.034  1.00  0.00     0.012 C 
HETATM   21  C17 UNL     1       2.781   2.389   0.977  1.00  0.00     0.001 C 
HETATM   22  C18 UNL     1       2.408   1.383   1.791  1.00  0.00     0.000 C 
HETATM   23  C19 UNL     1       3.220   0.165   1.998  1.00  0.00     0.001 C 
ENDBRANCH   5   8
BRANCH   4  24
HETATM   24  N1  UNL     1      -1.474  -3.601  -1.273  1.00  0.00    -0.398 N 
HETATM   25  H5  UNL     1      -0.833  -3.885  -0.502  1.00  0.00     0.156 HD
HETATM   26  H6  UNL     1      -1.760  -4.339  -1.955  1.00  0.00     0.156 HD
ENDBRANCH   4  24
BRANCH   6  27
HETATM   27  C23 UNL     1      -1.707   1.171   0.247  1.00  0.00     0.140 A 
HETATM   28  N2  UNL     1      -1.950   1.059   1.572  1.00  0.00    -0.241 NA
HETATM   29  C24 UNL     1      -1.510   2.222   2.092  1.00  0.00     0.136 A 
HETATM   30  C25 UNL     1      -1.008   3.018   1.088  1.00  0.00     0.111 A 
HETATM   31  N3  UNL     1      -1.123   2.349  -0.071  1.00  0.00    -0.344 N 
HETATM   32  C26 UNL     1      -0.694   2.830  -1.382  1.00  0.00     0.157 C 
ENDBRANCH   6  27
TORSDOF 3
