REMARK  2 active torsions:
REMARK  status: ('A' for Active; 'I' for Inactive)
REMARK       I    between atoms: C1_2  and  N1_3 
REMARK    1  A    between atoms: C1_2  and  C15_19 
REMARK    2  A    between atoms: N1_3  and  C2_4 
ROOT
HETATM    1  O1  UNL     1       0.628  -1.208  -0.606  1.00  0.00    -0.267 OA
HETATM    2  C1  UNL     1       1.186  -0.079  -0.535  1.00  0.00     0.258 C 
HETATM    3  N1  UNL     1       0.469   1.097  -0.949  1.00  0.00    -0.323 N 
HETATM    4  H1  UNL     1       1.019   1.892  -1.347  1.00  0.00     0.169 HD
ENDROOT
BRANCH   3   5
HETATM    5  C2  UNL     1      -0.966   1.173  -1.009  1.00  0.00     0.035 A 
HETATM    6  C3  UNL     1      -1.773   0.486  -0.086  1.00  0.00     0.044 A 
HETATM    7  C4  UNL     1      -3.186   0.574  -0.140  1.00  0.00     0.004 A 
HETATM    8  C5  UNL     1      -3.769   1.401  -1.136  1.00  0.00     0.046 A 
HETATM    9  C14 UNL     1      -4.049  -0.119   0.759  1.00  0.00    -0.008 A 
HETATM   10  C6  UNL     1      -2.952   2.101  -2.037  1.00  0.00     0.033 A 
HETATM   11  N2  UNL     1      -5.122   1.529  -1.224  1.00  0.00    -0.322 N 
HETATM   12  C7  UNL     1      -1.566   1.992  -1.970  1.00  0.00     0.032 A 
HETATM   13  C8  UNL     1      -5.965   0.886  -0.377  1.00  0.00     0.257 A 
HETATM   14  H5  UNL     1      -5.535   2.144  -1.963  1.00  0.00     0.169 HD
HETATM   15  O2  UNL     1      -7.210   1.049  -0.508  1.00  0.00    -0.267 OA
HETATM   16  C9  UNL     1      -5.456   0.049   0.632  1.00  0.00     0.043 A 
HETATM   17  C10 UNL     1      -6.329  -0.622   1.511  1.00  0.00     0.018 A 
HETATM   18  C11 UNL     1      -5.827  -1.457   2.506  1.00  0.00     0.001 A 
HETATM   19  C12 UNL     1      -4.454  -1.637   2.637  1.00  0.00     0.001 A 
HETATM   20  C13 UNL     1      -3.571  -0.981   1.778  1.00  0.00     0.013 A 
ENDBRANCH   3   5
BRANCH   2  21
HETATM   21  C15 UNL     1       2.595   0.000  -0.080  1.00  0.00     0.063 C 
HETATM   22  C16 UNL     1       3.123   1.174   0.371  1.00  0.00     0.107 C 
HETATM   23  N3  UNL     1       4.508   1.363   0.764  1.00  0.00    -0.351 N 
HETATM   24  C17 UNL     1       5.457   0.292   0.855  1.00  0.00     0.107 C 
HETATM   25  H11 UNL     1       4.858   2.341   0.868  1.00  0.00     0.166 HD
HETATM   26  C18 UNL     1       6.278   0.116  -0.192  1.00  0.00     0.048 C 
HETATM   27  N4  UNL     1       5.092  -0.846   1.642  1.00  0.00    -0.309 N 
HETATM   28  C19 UNL     1       6.489  -1.228  -0.788  1.00  0.00     0.004 C 
HETATM   29  C20 UNL     1       5.474  -1.968  -1.287  1.00  0.00     0.001 C 
HETATM   30  C21 UNL     1       4.059  -1.509  -1.266  1.00  0.00     0.018 C 
HETATM   31  C22 UNL     1       3.408  -1.235  -0.118  1.00  0.00     0.049 C 
HETATM   32  C23 UNL     1       4.014  -1.634   1.157  1.00  0.00     0.258 C 
HETATM   33  O3  UNL     1       3.625  -2.659   1.777  1.00  0.00    -0.267 OA
HETATM   34  H16 UNL     1       5.701  -1.178   2.423  1.00  0.00     0.170 HD
ENDBRANCH   2  21
TORSDOF 2
