REMARK  2 active torsions:
REMARK  status: ('A' for Active; 'I' for Inactive)
REMARK    1  A    between atoms: N2_10  and  S1_11 
REMARK    2  A    between atoms: S1_11  and  C8_14 
ROOT
HETATM    1  S1  UNL     1       0.409  -2.015  -1.334  1.00  0.00     0.243 S 
HETATM    2  O2  UNL     1       1.012  -3.224  -0.675  1.00  0.00    -0.206 OA
HETATM    3  O3  UNL     1       0.584  -2.166  -2.820  1.00  0.00    -0.206 OA
ENDROOT
BRANCH   1   4
HETATM    4  N2  UNL     1      -1.299  -1.969  -0.964  1.00  0.00    -0.204 NA
HETATM    5  C7  UNL     1      -2.001  -0.869  -1.647  1.00  0.00     0.133 C 
HETATM    6  C6  UNL     1      -3.118  -0.520  -0.695  1.00  0.00     0.108 C 
HETATM    7  C2  UNL     1      -2.467  -0.606   0.671  1.00  0.00    -0.009 C 
HETATM    8  N1  UNL     1      -3.784   0.758  -0.855  1.00  0.00    -0.354 N 
HETATM    9  C1  UNL     1      -1.566   0.615   1.021  1.00  0.00     0.018 C 
HETATM   10  C3  UNL     1      -3.621  -0.709   1.694  1.00  0.00     0.022 C 
HETATM   11  C18 UNL     1      -1.585  -1.854   0.485  1.00  0.00     0.118 C 
HETATM   12  C4  UNL     1      -4.605   0.498   1.580  1.00  0.00     0.103 C 
HETATM   13  C5  UNL     1      -4.673   1.156   0.203  1.00  0.00     0.217 C 
HETATM   14  O1  UNL     1      -5.481   2.102   0.011  1.00  0.00    -0.274 OA
HETATM   15  H8  UNL     1      -3.694   1.318  -1.733  1.00  0.00     0.162 HD
ENDBRANCH   1   4
BRANCH   1  16
HETATM   16  C8  UNL     1       1.279  -0.575  -0.785  1.00  0.00     0.078 C 
HETATM   17  C9  UNL     1       1.409   0.474  -1.633  1.00  0.00     0.025 C 
HETATM   18  C10 UNL     1       1.894   1.862  -1.371  1.00  0.00     0.002 C 
HETATM   19  C11 UNL     1       3.038   2.300  -0.810  1.00  0.00     0.009 C 
HETATM   20  C12 UNL     1       4.056   1.467  -0.158  1.00  0.00    -0.039 C 
HETATM   21  C13 UNL     1       4.206   1.624   1.173  1.00  0.00     0.028 C 
HETATM   22  C16 UNL     1       4.678   0.290  -0.890  1.00  0.00     0.160 C 
HETATM   23  C14 UNL     1       4.440   0.479   2.088  1.00  0.00     0.119 C 
HETATM   24  N3  UNL     1       3.899  -0.689   1.872  1.00  0.00    -0.244 NA
HETATM   25  C15 UNL     1       3.221  -0.983   0.645  1.00  0.00     0.124 C 
HETATM   26  N4  UNL     1       4.002  -0.957  -0.549  1.00  0.00    -0.371 N 
HETATM   27  C17 UNL     1       1.924  -0.665   0.539  1.00  0.00     0.074 C 
HETATM   28  H17 UNL     1       3.801  -1.646  -1.308  1.00  0.00     0.161 HD
ENDBRANCH   1  16
TORSDOF 2
