REMARK  5 active torsions:
REMARK  status: ('A' for Active; 'I' for Inactive)
REMARK    1  A    between atoms: C2_2  and  C3_3 
REMARK    2  A    between atoms: C3_3  and  N1_4 
REMARK       I    between atoms: N1_4  and  C4_5 
REMARK    3  A    between atoms: C4_5  and  C5_7 
REMARK       I    between atoms: N2_15  and  C12_16 
REMARK    4  A    between atoms: C12_16  and  C13_18 
REMARK    5  A    between atoms: C17_22  and  O3_23 
ROOT
HETATM    1  C1  UNL     1       0.416  -1.214  -0.872  1.00  0.00     0.049 C 
HETATM    2  C2  UNL     1       0.362  -0.564   0.542  1.00  0.00     0.089 C 
HETATM    3  C11 UNL     1      -0.770  -1.214   1.405  1.00  0.00     0.165 C 
HETATM    4  N2  UNL     1      -2.092  -0.624   1.147  1.00  0.00    -0.345 N 
HETATM    5  C12 UNL     1      -3.026  -1.267   0.247  1.00  0.00     0.254 C 
HETATM    6  O2  UNL     1      -2.742  -2.381  -0.271  1.00  0.00    -0.267 OA
HETATM    7  C19 UNL     1      -2.334   0.728   1.675  1.00  0.00     0.128 C 
HETATM    8  C20 UNL     1      -1.990   1.795   0.632  1.00  0.00     0.046 C 
HETATM    9  C21 UNL     1      -0.816   1.384  -0.263  1.00  0.00     0.170 C 
HETATM   10  O4  UNL     1       0.261   0.865   0.506  1.00  0.00    -0.377 OA
ENDROOT
BRANCH   2  11
HETATM   11  C3  UNL     1       1.709  -0.877   1.250  1.00  0.00     0.162 C 
BRANCH  11  12
HETATM   12  N1  UNL     1       2.855  -0.292   0.550  1.00  0.00    -0.354 N 
HETATM   13  C4  UNL     1       4.200  -0.541   0.985  1.00  0.00     0.254 C 
HETATM   14  O1  UNL     1       4.403  -1.118   2.088  1.00  0.00    -0.268 OA
HETATM   15  H6  UNL     1       2.699   0.376  -0.238  1.00  0.00     0.162 HD
BRANCH  13  16
HETATM   16  C5  UNL     1       5.357  -0.099   0.173  1.00  0.00     0.070 A 
HETATM   17  C6  UNL     1       6.536   0.320   0.815  1.00  0.00     0.020 A 
HETATM   18  C7  UNL     1       7.638   0.746   0.068  1.00  0.00     0.001 A 
HETATM   19  C8  UNL     1       7.579   0.749  -1.327  1.00  0.00     0.003 A 
HETATM   20  C9  UNL     1       6.421   0.318  -1.978  1.00  0.00     0.043 A 
HETATM   21  C10 UNL     1       5.313  -0.109  -1.237  1.00  0.00     0.132 A 
HETATM   22  F1  UNL     1       4.226  -0.577  -1.901  1.00  0.00    -0.205 F 
ENDBRANCH  13  16
ENDBRANCH  11  12
ENDBRANCH   2  11
BRANCH   5  23
HETATM   23  C13 UNL     1      -4.308  -0.641  -0.117  1.00  0.00     0.034 A 
HETATM   24  C14 UNL     1      -5.341  -0.532   0.826  1.00  0.00     0.017 A 
HETATM   25  C15 UNL     1      -6.556   0.060   0.469  1.00  0.00     0.004 A 
HETATM   26  C16 UNL     1      -6.749   0.536  -0.831  1.00  0.00     0.036 A 
HETATM   27  C17 UNL     1      -5.729   0.418  -1.782  1.00  0.00     0.066 A 
HETATM   28  C18 UNL     1      -4.510  -0.178  -1.425  1.00  0.00     0.053 A 
BRANCH  27  29
HETATM   29  O3  UNL     1      -5.935   0.894  -3.075  1.00  0.00    -0.361 OA
HETATM   30  H16 UNL     1      -5.218   0.819  -3.787  1.00  0.00     0.217 HD
ENDBRANCH  27  29
ENDBRANCH   5  23
TORSDOF 5
