REMARK  4 active torsions:
REMARK  status: ('A' for Active; 'I' for Inactive)
REMARK    1  A    between atoms: O1_2  and  C2_3 
REMARK    2  A    between atoms: C6_7  and  S1_8 
REMARK    3  A    between atoms: S1_8  and  N1_11 
REMARK       I    between atoms: N1_11  and  C7_12 
REMARK    4  A    between atoms: C7_12  and  C8_14 
ROOT
HETATM    1  N1  UNL     1      -1.484   0.416  -2.518  1.00  0.00    -0.246 N 
HETATM    2  C7  UNL     1      -0.509   0.979  -1.630  1.00  0.00     0.265 C 
HETATM    3  O4  UNL     1      -0.621   2.182  -1.267  1.00  0.00    -0.267 OA
HETATM    4  H7  UNL     1      -1.289  -0.475  -3.025  1.00  0.00     0.182 HD
ENDROOT
BRANCH   2   5
HETATM    5  C8  UNL     1       0.630   0.171  -1.133  1.00  0.00     0.035 A 
HETATM    6  C9  UNL     1       0.550  -1.226  -1.074  1.00  0.00     0.018 A 
HETATM    7  C10 UNL     1       1.619  -1.974  -0.584  1.00  0.00     0.010 A 
HETATM    8  C11 UNL     1       2.794  -1.351  -0.127  1.00  0.00    -0.031 A 
HETATM    9  C12 UNL     1       2.896   0.067  -0.194  1.00  0.00     0.042 A 
HETATM   10  C17 UNL     1       3.894  -2.235   0.412  1.00  0.00     0.041 C 
HETATM   11  C13 UNL     1       1.800   0.803  -0.683  1.00  0.00     0.047 A 
HETATM   12  N2  UNL     1       4.070   0.810   0.205  1.00  0.00    -0.327 N 
HETATM   13  C14 UNL     1       5.370   0.269   0.470  1.00  0.00     0.222 C 
HETATM   14  H11 UNL     1       4.050   1.846   0.062  1.00  0.00     0.169 HD
HETATM   15  O5  UNL     1       6.368   0.773  -0.111  1.00  0.00    -0.273 OA
HETATM   16  C15 UNL     1       5.608  -0.757   1.539  1.00  0.00     0.103 C 
HETATM   17  C16 UNL     1       4.434  -1.710   1.745  1.00  0.00     0.014 C 
ENDBRANCH   2   5
BRANCH   1  18
HETATM   18  S1  UNL     1      -3.019   1.178  -2.770  1.00  0.00     0.265 S 
HETATM   19  O2  UNL     1      -2.803   2.499  -3.453  1.00  0.00    -0.200 OA
HETATM   20  O3  UNL     1      -3.873   0.302  -3.643  1.00  0.00    -0.200 OA
BRANCH  18  21
HETATM   21  C6  UNL     1      -3.827   1.409  -1.222  1.00  0.00     0.082 A 
HETATM   22  C5  UNL     1      -4.661   2.515  -1.019  1.00  0.00     0.025 A 
HETATM   23  C4  UNL     1      -5.288   2.701   0.216  1.00  0.00     0.004 A 
HETATM   24  C3  UNL     1      -5.086   1.785   1.251  1.00  0.00     0.037 A 
HETATM   25  C2  UNL     1      -4.259   0.671   1.061  1.00  0.00     0.069 A 
HETATM   26  C18 UNL     1      -3.634   0.484  -0.187  1.00  0.00     0.061 A 
BRANCH  25  27
HETATM   27  O1  UNL     1      -4.084  -0.220   2.131  1.00  0.00    -0.356 OA
HETATM   28  C1  UNL     1      -3.243  -1.369   2.089  1.00  0.00     0.210 C 
ENDBRANCH  25  27
ENDBRANCH  18  21
ENDBRANCH   1  18
TORSDOF 4
