REMARK  3 active torsions:
REMARK  status: ('A' for Active; 'I' for Inactive)
REMARK       I    between atoms: C1_2  and  N1_3 
REMARK    1  A    between atoms: C1_2  and  C21_24 
REMARK       I    between atoms: N1_3  and  C2_4 
REMARK    2  A    between atoms: C2_4  and  C3_6 
REMARK    3  A    between atoms: C24_27  and  N2_28 
ROOT
HETATM    1  O1  UNL     1      -2.706  -1.315   2.985  1.00  0.00    -0.267 OA
HETATM    2  C1  UNL     1      -2.260  -1.204   1.809  1.00  0.00     0.261 C 
HETATM    3  N1  UNL     1      -0.856  -1.378   1.551  1.00  0.00    -0.289 N 
HETATM    4  C2  UNL     1       0.155  -1.341   2.572  1.00  0.00     0.258 C 
HETATM    5  O2  UNL     1      -0.151  -1.567   3.775  1.00  0.00    -0.267 OA
HETATM    6  H1  UNL     1      -0.550  -1.513   0.561  1.00  0.00     0.172 HD
ENDROOT
BRANCH   2   7
HETATM    7  C21 UNL     1      -3.191  -0.885   0.694  1.00  0.00     0.067 C 
HETATM    8  C22 UNL     1      -4.514  -1.202   0.789  1.00  0.00     0.034 C 
HETATM    9  C23 UNL     1      -5.690  -0.887  -0.145  1.00  0.00     0.004 A 
HETATM   10  C24 UNL     1      -7.005  -1.193   0.327  1.00  0.00     0.037 A 
HETATM   11  C28 UNL     1      -5.587  -0.322  -1.470  1.00  0.00     0.010 A 
HETATM   12  C25 UNL     1      -8.118  -1.036  -0.511  1.00  0.00     0.030 A 
HETATM   13  C26 UNL     1      -7.983  -0.519  -1.791  1.00  0.00     0.003 A 
HETATM   14  C27 UNL     1      -6.732  -0.150  -2.263  1.00  0.00     0.015 A 
HETATM   15  C29 UNL     1      -4.294   0.078  -2.036  1.00  0.00     0.087 C 
HETATM   16  C30 UNL     1      -4.062   1.263  -2.618  1.00  0.00     0.038 C 
HETATM   17  O3  UNL     1      -3.222  -0.689  -1.696  1.00  0.00    -0.309 OA
HETATM   18  C31 UNL     1      -2.679   1.816  -2.705  1.00  0.00     0.003 C 
HETATM   19  C32 UNL     1      -1.701   1.611  -1.786  1.00  0.00     0.003 C 
HETATM   20  C33 UNL     1      -1.849   0.789  -0.550  1.00  0.00     0.038 C 
HETATM   21  C34 UNL     1      -2.657  -0.279  -0.526  1.00  0.00     0.091 C 
BRANCH  10  22
HETATM   22  N2  UNL     1      -7.253  -1.631   1.672  1.00  0.00    -0.398 N 
HETATM   23  H14 UNL     1      -6.686  -1.283   2.476  1.00  0.00     0.156 HD
HETATM   24  H15 UNL     1      -8.142  -2.128   1.908  1.00  0.00     0.156 HD
ENDBRANCH  10  22
ENDBRANCH   2   7
BRANCH   4  25
HETATM   25  C3  UNL     1       1.566  -1.054   2.218  1.00  0.00     0.033 A 
HETATM   26  C4  UNL     1       1.879  -0.295   1.084  1.00  0.00     0.030 A 
HETATM   27  C5  UNL     1       3.221  -0.034   0.700  1.00  0.00    -0.013 A 
HETATM   28  C6  UNL     1       4.271  -0.470   1.560  1.00  0.00    -0.014 A 
HETATM   29  C20 UNL     1       3.527   0.669  -0.502  1.00  0.00    -0.014 A 
HETATM   30  C7  UNL     1       3.923  -1.222   2.715  1.00  0.00     0.014 A 
HETATM   31  C9  UNL     1       5.625  -0.131   1.258  1.00  0.00    -0.014 A 
HETATM   32  C8  UNL     1       2.600  -1.513   3.027  1.00  0.00     0.018 A 
HETATM   33  C10 UNL     1       6.704  -0.536   2.094  1.00  0.00     0.013 A 
HETATM   34  C14 UNL     1       5.923   0.652   0.098  1.00  0.00    -0.014 A 
HETATM   35  C11 UNL     1       8.017  -0.181   1.810  1.00  0.00     0.001 A 
HETATM   36  C12 UNL     1       8.304   0.584   0.694  1.00  0.00     0.001 A 
HETATM   37  C13 UNL     1       7.281   0.995  -0.152  1.00  0.00     0.013 A 
HETATM   38  C15 UNL     1       4.873   1.050  -0.783  1.00  0.00    -0.014 A 
HETATM   39  C16 UNL     1       5.125   1.810  -1.960  1.00  0.00     0.013 A 
HETATM   40  C17 UNL     1       4.105   2.136  -2.846  1.00  0.00     0.001 A 
HETATM   41  C18 UNL     1       2.812   1.711  -2.604  1.00  0.00     0.001 A 
HETATM   42  C19 UNL     1       2.521   0.984  -1.458  1.00  0.00     0.013 A 
ENDBRANCH   4  25
TORSDOF 3
