REMARK  5 active torsions:
REMARK  status: ('A' for Active; 'I' for Inactive)
REMARK    1  A    between atoms: C4_6  and  C5_7 
REMARK    2  A    between atoms: C5_7  and  C6_8 
REMARK       I    between atoms: C6_8  and  N2_10 
REMARK       I    between atoms: N3_15  and  C11_16 
REMARK    3  A    between atoms: C11_16  and  C12_18 
REMARK    4  A    between atoms: C16_23  and  C17_24 
REMARK    5  A    between atoms: C17_24  and  O4_25 
ROOT
HETATM    1  C6  UNL     1       3.109  -1.152   0.170  1.00  0.00     0.226 C 
HETATM    2  O2  UNL     1       3.686  -1.802  -0.744  1.00  0.00    -0.273 OA
HETATM    3  N2  UNL     1       1.661  -1.070   0.178  1.00  0.00    -0.350 N 
HETATM    4  C7  UNL     1       0.944  -0.080   1.006  1.00  0.00     0.128 C 
HETATM    5  C8  UNL     1       0.478   1.122   0.169  1.00  0.00     0.045 C 
HETATM    6  C9  UNL     1      -0.086   0.735  -1.212  1.00  0.00     0.085 C 
HETATM    7  C10 UNL     1      -0.679   1.973  -1.905  1.00  0.00     0.032 C 
HETATM    8  N3  UNL     1      -1.046  -0.388  -1.090  1.00  0.00    -0.341 N 
HETATM    9  C11 UNL     1      -2.468  -0.161  -1.086  1.00  0.00     0.273 C 
HETATM   10  O3  UNL     1      -3.037   0.221  -2.143  1.00  0.00    -0.266 OA
HETATM   11  C18 UNL     1      -0.606  -1.759  -0.771  1.00  0.00     0.146 C 
HETATM   12  C19 UNL     1       0.926  -1.957  -0.750  1.00  0.00     0.145 C 
ENDROOT
BRANCH   9  13
HETATM   13  C12 UNL     1      -3.247  -0.334   0.160  1.00  0.00     0.132 A 
HETATM   14  N4  UNL     1      -2.622  -0.047   1.336  1.00  0.00    -0.255 NA
HETATM   15  C13 UNL     1      -3.252  -0.115   2.536  1.00  0.00     0.117 A 
HETATM   16  C14 UNL     1      -4.592  -0.484   2.597  1.00  0.00     0.020 A 
HETATM   17  C15 UNL     1      -5.271  -0.786   1.419  1.00  0.00     0.013 A 
HETATM   18  C16 UNL     1      -4.606  -0.746   0.179  1.00  0.00    -0.000 A 
BRANCH  18  19
HETATM   19  C17 UNL     1      -5.349  -1.115  -1.091  1.00  0.00     0.205 C 
BRANCH  19  20
HETATM   20  O4  UNL     1      -6.466  -1.925  -0.830  1.00  0.00    -0.396 OA
HETATM   21  H20 UNL     1      -6.121  -2.842  -0.675  1.00  0.00     0.209 HD
ENDBRANCH  19  20
ENDBRANCH  18  19
ENDBRANCH   9  13
BRANCH   1  22
HETATM   22  C5  UNL     1       3.977  -0.475   1.196  1.00  0.00     0.170 C 
BRANCH  22  23
HETATM   23  C4  UNL     1       4.181   0.971   0.864  1.00  0.00     0.087 A 
HETATM   24  C2  UNL     1       4.985   1.504  -0.120  1.00  0.00     0.062 A 
HETATM   25  C1  UNL     1       5.804   0.750  -1.113  1.00  0.00     0.073 C 
HETATM   26  N1  UNL     1       4.898   2.849  -0.082  1.00  0.00    -0.239 NA
HETATM   27  C3  UNL     1       4.041   3.077   0.935  1.00  0.00     0.258 A 
HETATM   28  O1  UNL     1       3.615   1.967   1.497  1.00  0.00    -0.306 OA
ENDBRANCH  22  23
ENDBRANCH   1  22
TORSDOF 5
