REMARK  3 active torsions:
REMARK  status: ('A' for Active; 'I' for Inactive)
REMARK    1  A    between atoms: C1_2  and  C2_3 
REMARK    2  A    between atoms: C1_2  and  C13_16 
REMARK    3  A    between atoms: C4_5  and  C5_6 
ROOT
HETATM    1  C13 UNL     1      -0.056  -1.211   0.717  1.00  0.00     0.062 A 
HETATM    2  C14 UNL     1      -0.009  -2.480   1.301  1.00  0.00     0.134 A 
HETATM    3  N1  UNL     1      -1.039  -3.344   1.150  1.00  0.00    -0.271 NA
HETATM    4  C15 UNL     1      -2.141  -3.020   0.433  1.00  0.00     0.131 A 
HETATM    5  C16 UNL     1      -2.255  -1.766  -0.189  1.00  0.00     0.020 A 
HETATM    6  C17 UNL     1      -1.182  -0.829  -0.059  1.00  0.00     0.063 A 
HETATM    7  N2  UNL     1      -1.178   0.480  -0.685  1.00  0.00    -0.325 N 
HETATM    8  C18 UNL     1      -2.199   0.994  -1.540  1.00  0.00     0.226 C 
HETATM    9  O4  UNL     1      -2.251   0.632  -2.746  1.00  0.00    -0.273 OA
HETATM   10  C19 UNL     1      -3.187   1.986  -1.001  1.00  0.00     0.142 C 
HETATM   11  C20 UNL     1      -3.662   1.566   0.374  1.00  0.00    -0.038 A 
HETATM   12  C21 UNL     1      -3.473   2.425   1.470  1.00  0.00     0.008 A 
HETATM   13  C22 UNL     1      -3.878   2.038   2.750  1.00  0.00     0.001 A 
HETATM   14  C23 UNL     1      -4.474   0.790   2.951  1.00  0.00     0.001 A 
HETATM   15  C24 UNL     1      -4.670  -0.074   1.872  1.00  0.00     0.013 A 
HETATM   16  C25 UNL     1      -4.269   0.304   0.584  1.00  0.00    -0.018 A 
HETATM   17  C26 UNL     1      -4.496  -0.619  -0.544  1.00  0.00    -0.014 A 
HETATM   18  C27 UNL     1      -5.698  -0.517  -1.263  1.00  0.00     0.013 A 
HETATM   19  C28 UNL     1      -5.920  -1.317  -2.385  1.00  0.00     0.001 A 
HETATM   20  C29 UNL     1      -4.944  -2.222  -2.802  1.00  0.00     0.001 A 
HETATM   21  C30 UNL     1      -3.744  -2.335  -2.095  1.00  0.00     0.013 A 
HETATM   22  C31 UNL     1      -3.500  -1.534  -0.965  1.00  0.00    -0.011 A 
HETATM   23  H10 UNL     1      -0.468   1.187  -0.394  1.00  0.00     0.169 HD
ENDROOT
BRANCH   1  24
HETATM   24  C1  UNL     1       1.092  -0.312   0.931  1.00  0.00     0.219 C 
HETATM   25  O1  UNL     1       0.962   0.674   1.704  1.00  0.00    -0.284 OA
BRANCH  24  26
HETATM   26  C2  UNL     1       2.383  -0.576   0.262  1.00  0.00     0.131 A 
HETATM   27  C3  UNL     1       3.496   0.249   0.486  1.00  0.00     0.054 A 
HETATM   28  C4  UNL     1       4.703  -0.027  -0.177  1.00  0.00    -0.017 A 
HETATM   29  C11 UNL     1       4.750  -1.128  -1.045  1.00  0.00     0.095 A 
HETATM   30  C12 UNL     1       3.606  -1.910  -1.217  1.00  0.00     0.289 A 
HETATM   31  O2  UNL     1       3.632  -2.902  -1.991  1.00  0.00    -0.260 OA
HETATM   32  O3  UNL     1       2.484  -1.611  -0.570  1.00  0.00    -0.271 OA
BRANCH  28  33
HETATM   33  C5  UNL     1       5.899   0.830   0.032  1.00  0.00    -0.026 A 
HETATM   34  C6  UNL     1       7.184   0.261   0.101  1.00  0.00     0.012 A 
HETATM   35  C7  UNL     1       8.307   1.070   0.294  1.00  0.00     0.001 A 
HETATM   36  C8  UNL     1       8.163   2.453   0.421  1.00  0.00     0.000 A 
HETATM   37  C9  UNL     1       6.895   3.030   0.355  1.00  0.00     0.001 A 
HETATM   38  C10 UNL     1       5.767   2.226   0.161  1.00  0.00     0.012 A 
ENDBRANCH  28  33
ENDBRANCH  24  26
ENDBRANCH   1  24
TORSDOF 3
