REMARK  1 active torsions:
REMARK  status: ('A' for Active; 'I' for Inactive)
REMARK       I    between atoms: N1_8  and  C8_9 
REMARK    1  A    between atoms: C8_9  and  C9_11 
ROOT
HETATM    1  C9  UNL     1      -0.177  -0.204   1.342  1.00  0.00     0.041 A 
HETATM    2  C10 UNL     1       0.251   0.449   2.512  1.00  0.00     0.018 A 
HETATM    3  C11 UNL     1       1.086   1.561   2.451  1.00  0.00     0.002 A 
HETATM    4  C12 UNL     1       1.499   2.056   1.221  1.00  0.00     0.012 A 
HETATM    5  C13 UNL     1       1.131   1.406   0.037  1.00  0.00    -0.028 A 
HETATM    6  C14 UNL     1       0.320   0.234   0.078  1.00  0.00    -0.019 A 
HETATM    7  C15 UNL     1       0.254  -0.664  -1.170  1.00  0.00     0.139 C 
HETATM    8  N2  UNL     1       1.495  -1.438  -1.302  1.00  0.00    -0.245 NA
HETATM    9  C16 UNL     1       2.712  -0.733  -1.463  1.00  0.00     0.229 C 
HETATM   10  O2  UNL     1       3.091  -0.236  -2.557  1.00  0.00    -0.274 OA
HETATM   11  C17 UNL     1       3.494  -0.811  -0.260  1.00  0.00     0.005 C 
HETATM   12  C18 UNL     1       4.231   0.142   0.326  1.00  0.00     0.012 C 
HETATM   13  C19 UNL     1       4.621   1.489  -0.156  1.00  0.00     0.001 C 
HETATM   14  C20 UNL     1       3.995   2.416  -0.910  1.00  0.00     0.000 C 
HETATM   15  C21 UNL     1       2.716   2.400  -1.655  1.00  0.00     0.001 C 
HETATM   16  C22 UNL     1       1.497   2.009  -1.259  1.00  0.00     0.012 C 
HETATM   17  C23 UNL     1       1.789  -2.498  -0.334  1.00  0.00     0.104 C 
HETATM   18  C24 UNL     1       2.997  -2.007   0.490  1.00  0.00     0.059 C 
ENDROOT
BRANCH   1  19
HETATM   19  C8  UNL     1      -1.148  -1.317   1.510  1.00  0.00     0.267 C 
HETATM   20  N1  UNL     1      -2.255  -1.525   0.613  1.00  0.00    -0.227 N 
HETATM   21  C7  UNL     1      -3.129  -0.648   0.051  1.00  0.00     0.080 A 
HETATM   22  C25 UNL     1      -2.553  -2.713   0.023  1.00  0.00     0.334 A 
HETATM   23  C2  UNL     1      -3.398   0.711   0.337  1.00  0.00    -0.032 A 
HETATM   24  C6  UNL     1      -3.882  -1.330  -0.878  1.00  0.00     0.064 A 
HETATM   25  C1  UNL     1      -2.770   1.473   1.466  1.00  0.00     0.050 C 
HETATM   26  C3  UNL     1      -4.370   1.359  -0.462  1.00  0.00     0.009 A 
HETATM   27  C4  UNL     1      -5.089   0.654  -1.447  1.00  0.00     0.003 A 
HETATM   28  C5  UNL     1      -4.862  -0.714  -1.649  1.00  0.00     0.032 A 
HETATM   29  N3  UNL     1      -3.537  -2.627  -0.896  1.00  0.00    -0.306 N 
HETATM   30  H21 UNL     1      -3.930  -3.390  -1.491  1.00  0.00     0.171 HD
HETATM   31  O3  UNL     1      -1.945  -3.788   0.275  1.00  0.00    -0.246 OA
HETATM   32  O1  UNL     1      -0.987  -2.121   2.468  1.00  0.00    -0.267 OA
ENDBRANCH   1  19
TORSDOF 1
