REMARK  6 active torsions:
REMARK  status: ('A' for Active; 'I' for Inactive)
REMARK       I    between atoms: C1_2  and  N1_3 
REMARK    1  A    between atoms: C1_2  and  C10_15 
REMARK       I    between atoms: N1_3  and  C2_4 
REMARK    2  A    between atoms: C2_4  and  C3_6 
REMARK    3  A    between atoms: C13_18  and  C33_38 
REMARK    4  A    between atoms: C14_19  and  C16_21 
REMARK    5  A    between atoms: C21_26  and  C22_27 
REMARK    6  A    between atoms: C27_32  and  C28_33 
ROOT
HETATM    1  C10 UNL     1       1.168  -1.287   0.420  1.00  0.00     0.033 A 
HETATM    2  C11 UNL     1       0.444  -2.453   0.146  1.00  0.00     0.018 A 
HETATM    3  C12 UNL     1      -0.925  -2.512   0.414  1.00  0.00     0.014 A 
HETATM    4  C13 UNL     1      -1.603  -1.389   0.910  1.00  0.00    -0.014 A 
HETATM    5  C14 UNL     1      -0.891  -0.190   1.135  1.00  0.00    -0.013 A 
HETATM    6  C15 UNL     1       0.496  -0.162   0.920  1.00  0.00     0.030 A 
ENDROOT
BRANCH   1   7
HETATM    7  C1  UNL     1       2.614  -1.225   0.126  1.00  0.00     0.258 C 
HETATM    8  O1  UNL     1       3.056  -1.797  -0.904  1.00  0.00    -0.267 OA
HETATM    9  N1  UNL     1       3.501  -0.491   0.989  1.00  0.00    -0.289 N 
HETATM   10  C2  UNL     1       4.911  -0.360   0.743  1.00  0.00     0.259 C 
HETATM   11  H1  UNL     1       3.146  -0.201   1.928  1.00  0.00     0.172 HD
HETATM   12  O2  UNL     1       5.701  -0.388   1.725  1.00  0.00    -0.267 OA
BRANCH  10  13
HETATM   13  C3  UNL     1       5.448  -0.147  -0.626  1.00  0.00     0.048 A 
HETATM   14  C4  UNL     1       4.633   0.775  -1.482  1.00  0.00     0.031 A 
HETATM   15  C5  UNL     1       5.040   1.044  -2.688  1.00  0.00    -0.018 A 
HETATM   16  C6  UNL     1       6.101   0.712  -3.527  1.00  0.00     0.043 A 
HETATM   17  C7  UNL     1       5.138   1.569  -3.992  1.00  0.00     0.030 A 
HETATM   18  C8  UNL     1       7.249  -0.112  -3.407  1.00  0.00     0.256 A 
HETATM   19  O3  UNL     1       8.085  -0.209  -4.344  1.00  0.00    -0.267 OA
HETATM   20  N2  UNL     1       7.417  -0.834  -2.173  1.00  0.00    -0.332 N 
HETATM   21  C9  UNL     1       6.625  -0.801  -0.942  1.00  0.00     0.108 A 
HETATM   22  H4  UNL     1       8.254  -1.460  -2.136  1.00  0.00     0.168 HD
ENDBRANCH  10  13
ENDBRANCH   1   7
BRANCH   5  23
HETATM   23  C16 UNL     1      -1.576   1.049   1.574  1.00  0.00    -0.014 A 
HETATM   24  C17 UNL     1      -1.225   1.624   2.807  1.00  0.00     0.013 A 
HETATM   25  C18 UNL     1      -1.798   2.831   3.216  1.00  0.00     0.001 A 
HETATM   26  C19 UNL     1      -2.730   3.472   2.401  1.00  0.00     0.001 A 
HETATM   27  C20 UNL     1      -3.090   2.912   1.172  1.00  0.00     0.013 A 
HETATM   28  C21 UNL     1      -2.519   1.703   0.744  1.00  0.00    -0.014 A 
BRANCH  28  29
HETATM   29  C22 UNL     1      -2.870   1.185  -0.600  1.00  0.00    -0.014 A 
HETATM   30  C23 UNL     1      -2.521   1.940  -1.732  1.00  0.00     0.013 A 
HETATM   31  C24 UNL     1      -2.876   1.505  -3.011  1.00  0.00     0.001 A 
HETATM   32  C25 UNL     1      -3.588   0.317  -3.174  1.00  0.00     0.001 A 
HETATM   33  C26 UNL     1      -3.949  -0.441  -2.059  1.00  0.00     0.013 A 
HETATM   34  C27 UNL     1      -3.598  -0.017  -0.767  1.00  0.00    -0.014 A 
BRANCH  34  35
HETATM   35  C28 UNL     1      -4.007  -0.839   0.394  1.00  0.00    -0.014 A 
HETATM   36  C29 UNL     1      -5.372  -0.997   0.677  1.00  0.00     0.013 A 
HETATM   37  C30 UNL     1      -5.784  -1.778   1.759  1.00  0.00     0.001 A 
HETATM   38  C31 UNL     1      -4.838  -2.419   2.560  1.00  0.00     0.001 A 
HETATM   39  C32 UNL     1      -3.477  -2.282   2.280  1.00  0.00     0.013 A 
HETATM   40  C33 UNL     1      -3.050  -1.493   1.200  1.00  0.00    -0.014 A 
ENDBRANCH  34  35
ENDBRANCH  28  29
ENDBRANCH   5  23
TORSDOF 6
