REMARK  5 active torsions:
REMARK  status: ('A' for Active; 'I' for Inactive)
REMARK    1  A    between atoms: C4_4  and  N1_5 
REMARK    2  A    between atoms: C7_8  and  C8_9 
REMARK       I    between atoms: C8_9  and  N2_11 
REMARK    3  A    between atoms: C13_16  and  C14_17 
REMARK    4  A    between atoms: C14_17  and  N3_18 
REMARK       I    between atoms: N3_18  and  C15_19 
REMARK    5  A    between atoms: C15_19  and  C16_21 
ROOT
HETATM    1  C8  UNL     1      -1.451   0.595   0.618  1.00  0.00     0.254 C 
HETATM    2  O1  UNL     1      -0.847   1.229   1.525  1.00  0.00    -0.267 OA
HETATM    3  N2  UNL     1      -0.786  -0.477  -0.080  1.00  0.00    -0.348 N 
HETATM    4  C9  UNL     1      -1.588  -1.630  -0.540  1.00  0.00     0.126 C 
HETATM    5  C10 UNL     1      -0.747  -2.867  -0.897  1.00  0.00     0.020 C 
HETATM    6  C11 UNL     1      -0.015  -3.490   0.306  1.00  0.00     0.002 C 
HETATM    7  C12 UNL     1       0.537  -2.491   1.339  1.00  0.00     0.008 C 
HETATM    8  C13 UNL     1       1.432  -1.382   0.734  1.00  0.00     0.021 C 
HETATM    9  C19 UNL     1       0.678  -0.431  -0.243  1.00  0.00     0.132 C 
ENDROOT
BRANCH   1  10
HETATM   10  C7  UNL     1      -2.845   0.959   0.301  1.00  0.00     0.038 A 
HETATM   11  C2  UNL     1      -3.213   1.451  -0.974  1.00  0.00    -0.044 A 
HETATM   12  C1  UNL     1      -2.194   1.674  -2.062  1.00  0.00     0.049 C 
HETATM   13  C3  UNL     1      -4.565   1.730  -1.238  1.00  0.00     0.036 A 
HETATM   14  C4  UNL     1      -5.537   1.566  -0.242  1.00  0.00     0.026 A 
HETATM   15  C5  UNL     1      -5.157   1.116   1.028  1.00  0.00     0.030 A 
HETATM   16  C6  UNL     1      -3.821   0.817   1.298  1.00  0.00     0.020 A 
BRANCH  14  17
HETATM   17  N1  UNL     1      -6.908   1.861  -0.519  1.00  0.00    -0.399 N 
HETATM   18  H5  UNL     1      -7.640   1.742   0.217  1.00  0.00     0.156 HD
HETATM   19  H6  UNL     1      -7.203   2.200  -1.462  1.00  0.00     0.156 HD
ENDBRANCH  14  17
ENDBRANCH   1  10
BRANCH   8  20
HETATM   20  C14 UNL     1       2.105  -0.591   1.878  1.00  0.00     0.129 C 
BRANCH  20  21
HETATM   21  N3  UNL     1       3.111   0.340   1.364  1.00  0.00    -0.355 N 
HETATM   22  C15 UNL     1       4.386  -0.096   0.870  1.00  0.00     0.272 C 
HETATM   23  O2  UNL     1       4.703  -1.316   0.924  1.00  0.00    -0.266 OA
HETATM   24  H20 UNL     1       2.905   1.363   1.415  1.00  0.00     0.162 HD
BRANCH  22  25
HETATM   25  C16 UNL     1       5.335   0.874   0.301  1.00  0.00     0.145 A 
HETATM   26  C17 UNL     1       6.592   0.585  -0.198  1.00  0.00     0.058 A 
HETATM   27  C18 UNL     1       7.083   1.804  -0.612  1.00  0.00     0.112 A 
HETATM   28  N4  UNL     1       6.157   2.748  -0.366  1.00  0.00    -0.289 N 
HETATM   29  N5  UNL     1       5.091   2.194   0.188  1.00  0.00    -0.170 NA
HETATM   30  H23 UNL     1       6.248   3.767  -0.574  1.00  0.00     0.188 HD
ENDBRANCH  22  25
ENDBRANCH  20  21
ENDBRANCH   8  20
TORSDOF 5
