REMARK  3 active torsions:
REMARK  status: ('A' for Active; 'I' for Inactive)
REMARK    1  A    between atoms: C4_4  and  C5_5 
REMARK       I    between atoms: C5_5  and  N1_7 
REMARK    2  A    between atoms: C16_18  and  C17_19 
REMARK    3  A    between atoms: C21_23  and  O2_24 
ROOT
HETATM    1  C5  UNL     1       0.789  -0.424  -0.914  1.00  0.00     0.272 C 
HETATM    2  O1  UNL     1      -0.053  -0.653  -1.827  1.00  0.00    -0.266 OA
HETATM    3  N1  UNL     1       0.381   0.237   0.312  1.00  0.00    -0.332 N 
HETATM    4  C6  UNL     1       1.225   0.214   1.514  1.00  0.00     0.127 C 
HETATM    5  C7  UNL     1       1.369  -1.197   2.109  1.00  0.00     0.020 C 
HETATM    6  C8  UNL     1       0.130  -2.066   2.618  1.00  0.00     0.006 C 
HETATM    7  C9  UNL     1      -1.351  -1.764   2.207  1.00  0.00     0.039 C 
HETATM    8  C10 UNL     1      -1.819  -1.699   0.741  1.00  0.00    -0.049 A 
HETATM    9  C11 UNL     1      -2.568  -2.792   0.221  1.00  0.00     0.007 A 
HETATM   10  C12 UNL     1      -3.454  -2.603  -0.871  1.00  0.00     0.001 A 
HETATM   11  C13 UNL     1      -3.598  -1.332  -1.450  1.00  0.00     0.001 A 
HETATM   12  C14 UNL     1      -2.816  -0.257  -0.994  1.00  0.00     0.010 A 
HETATM   13  C15 UNL     1      -1.960  -0.414   0.128  1.00  0.00    -0.023 A 
HETATM   14  C16 UNL     1      -1.020   0.691   0.526  1.00  0.00     0.173 C 
ENDROOT
BRANCH   1  15
HETATM   15  C4  UNL     1       2.159  -0.958  -1.115  1.00  0.00     0.119 A 
HETATM   16  C3  UNL     1       3.282  -0.151  -1.348  1.00  0.00     0.065 A 
HETATM   17  C2  UNL     1       4.303  -1.102  -1.295  1.00  0.00     0.053 A 
HETATM   18  C1  UNL     1       5.694  -0.838  -1.704  1.00  0.00     0.072 C 
HETATM   19  N4  UNL     1       3.807  -2.325  -0.993  1.00  0.00    -0.179 NA
HETATM   20  N3  UNL     1       2.503  -2.213  -0.865  1.00  0.00    -0.273 N 
HETATM   21  H22 UNL     1       1.871  -3.020  -0.609  1.00  0.00     0.189 HD
ENDBRANCH   1  15
BRANCH  14  22
HETATM   22  C17 UNL     1      -1.313   2.072  -0.010  1.00  0.00     0.065 A 
HETATM   23  C18 UNL     1      -0.350   2.836  -0.692  1.00  0.00     0.030 A 
HETATM   24  C19 UNL     1      -0.613   4.129  -1.111  1.00  0.00     0.006 A 
HETATM   25  C20 UNL     1      -1.884   4.668  -0.817  1.00  0.00     0.058 A 
HETATM   26  C21 UNL     1      -2.811   3.883  -0.145  1.00  0.00     0.162 A 
HETATM   27  N2  UNL     1      -2.539   2.630   0.256  1.00  0.00    -0.227 NA
BRANCH  26  28
HETATM   28  O2  UNL     1      -4.082   4.408   0.116  1.00  0.00    -0.345 OA
HETATM   29  H21 UNL     1      -4.271   5.436   0.044  1.00  0.00     0.219 HD
ENDBRANCH  26  28
ENDBRANCH  14  22
TORSDOF 3
