REMARK  2 active torsions:
REMARK  status: ('A' for Active; 'I' for Inactive)
REMARK    1  A    between atoms: C6_6  and  C7_7 
REMARK    2  A    between atoms: C15_20  and  C16_21 
ROOT
HETATM    1  C1  UNL     1       5.167   1.231   0.602  1.00  0.00     0.049 C 
HETATM    2  C2  UNL     1       3.771   1.741   0.854  1.00  0.00    -0.050 A 
HETATM    3  C3  UNL     1       3.595   3.076   1.249  1.00  0.00     0.007 A 
HETATM    4  C4  UNL     1       2.318   3.588   1.472  1.00  0.00     0.002 A 
HETATM    5  C5  UNL     1       1.199   2.774   1.314  1.00  0.00     0.015 A 
HETATM    6  C6  UNL     1       1.341   1.429   0.937  1.00  0.00     0.009 A 
HETATM    7  C15 UNL     1       2.638   0.899   0.715  1.00  0.00    -0.003 A 
ENDROOT
BRANCH   6   8
HETATM    8  C7  UNL     1       0.127   0.586   0.817  1.00  0.00     0.129 A 
HETATM    9  N1  UNL     1       0.067  -0.599   1.476  1.00  0.00    -0.144 NA
HETATM   10  N2  UNL     1      -0.999  -1.392   1.392  1.00  0.00    -0.123 NA
HETATM   11  C8  UNL     1      -2.087  -1.060   0.651  1.00  0.00     0.197 A 
HETATM   12  C9  UNL     1      -2.091   0.149  -0.079  1.00  0.00     0.055 A 
HETATM   13  O1  UNL     1      -3.160  -1.946   0.631  1.00  0.00    -0.331 OA
HETATM   14  C10 UNL     1      -0.956   0.974   0.018  1.00  0.00     0.160 A 
HETATM   15  C11 UNL     1      -3.177   0.563  -1.067  1.00  0.00     0.163 C 
HETATM   16  F1  UNL     1      -0.883   2.122  -0.707  1.00  0.00    -0.203 F 
HETATM   17  N3  UNL     1      -4.482  -0.122  -0.957  1.00  0.00    -0.410 N 
HETATM   18  C12 UNL     1      -4.637  -1.277  -1.857  1.00  0.00     0.143 C 
HETATM   19  C13 UNL     1      -4.980  -0.311   0.418  1.00  0.00     0.143 C 
HETATM   20  C14 UNL     1      -4.464  -1.596   1.078  1.00  0.00     0.197 C 
ENDBRANCH   6   8
BRANCH   7  21
HETATM   21  C16 UNL     1       2.804  -0.510   0.286  1.00  0.00     0.034 A 
HETATM   22  C17 UNL     1       2.425  -0.903  -1.004  1.00  0.00     0.022 A 
HETATM   23  C18 UNL     1       2.568  -2.234  -1.398  1.00  0.00     0.064 A 
HETATM   24  C19 UNL     1       3.087  -3.163  -0.494  1.00  0.00     0.212 A 
HETATM   25  F2  UNL     1       3.232  -4.459  -0.859  1.00  0.00    -0.184 F 
HETATM   26  N4  UNL     1       3.444  -2.768   0.758  1.00  0.00    -0.191 NA
HETATM   27  C20 UNL     1       3.316  -1.478   1.166  1.00  0.00     0.223 A 
HETATM   28  F3  UNL     1       3.665  -1.142   2.433  1.00  0.00    -0.183 F 
ENDBRANCH   7  21
TORSDOF 2
