REMARK  2 active torsions:
REMARK  status: ('A' for Active; 'I' for Inactive)
REMARK       I    between atoms: C1_2  and  N1_3 
REMARK    1  A    between atoms: C1_2  and  C21_24 
REMARK       I    between atoms: N1_3  and  C2_4 
REMARK    2  A    between atoms: C2_4  and  C3_6 
ROOT
HETATM    1  C21 UNL     1      -1.081   2.187  -0.731  1.00  0.00     0.033 A 
HETATM    2  C22 UNL     1      -1.536   1.149   0.105  1.00  0.00     0.030 A 
HETATM    3  C23 UNL     1      -2.820   1.197   0.673  1.00  0.00    -0.010 A 
HETATM    4  C24 UNL     1      -3.665   2.294   0.406  1.00  0.00     0.021 A 
HETATM    5  C25 UNL     1      -3.228   3.308  -0.453  1.00  0.00     0.017 A 
HETATM    6  C26 UNL     1      -1.952   3.256  -1.015  1.00  0.00     0.018 A 
HETATM    7  C27 UNL     1      -4.991   2.406   1.041  1.00  0.00     0.164 C 
HETATM    8  O3  UNL     1      -5.070   2.476   2.298  1.00  0.00    -0.292 OA
HETATM    9  C28 UNL     1      -6.242   2.427   0.216  1.00  0.00     0.123 C 
HETATM   10  C29 UNL     1      -7.171   1.318   0.654  1.00  0.00    -0.040 A 
HETATM   11  C30 UNL     1      -8.165   1.603   1.609  1.00  0.00     0.008 A 
HETATM   12  C31 UNL     1      -9.022   0.601   2.066  1.00  0.00     0.001 A 
HETATM   13  C32 UNL     1      -8.896  -0.701   1.579  1.00  0.00     0.001 A 
HETATM   14  C33 UNL     1      -7.910  -1.005   0.638  1.00  0.00     0.013 A 
HETATM   15  C34 UNL     1      -7.033  -0.011   0.179  1.00  0.00    -0.018 A 
HETATM   16  C35 UNL     1      -6.018  -0.376  -0.833  1.00  0.00    -0.014 A 
HETATM   17  C36 UNL     1      -6.376  -0.321  -2.190  1.00  0.00     0.013 A 
HETATM   18  C37 UNL     1      -5.443  -0.635  -3.180  1.00  0.00     0.001 A 
HETATM   19  C38 UNL     1      -4.145  -1.006  -2.827  1.00  0.00     0.001 A 
HETATM   20  C39 UNL     1      -3.776  -1.067  -1.482  1.00  0.00     0.013 A 
HETATM   21  C40 UNL     1      -4.705  -0.760  -0.472  1.00  0.00    -0.014 A 
HETATM   22  C41 UNL     1      -4.270  -0.845   0.943  1.00  0.00    -0.014 A 
HETATM   23  C42 UNL     1      -4.774  -1.870   1.758  1.00  0.00     0.013 A 
HETATM   24  C43 UNL     1      -4.339  -2.003   3.079  1.00  0.00     0.001 A 
HETATM   25  C44 UNL     1      -3.383  -1.124   3.593  1.00  0.00     0.001 A 
HETATM   26  C45 UNL     1      -2.868  -0.102   2.792  1.00  0.00     0.013 A 
HETATM   27  C46 UNL     1      -3.309   0.051   1.470  1.00  0.00    -0.014 A 
ENDROOT
BRANCH   1  28
HETATM   28  C1  UNL     1       0.274   2.171  -1.345  1.00  0.00     0.258 C 
HETATM   29  O1  UNL     1       0.484   2.888  -2.361  1.00  0.00    -0.267 OA
HETATM   30  N1  UNL     1       1.352   1.392  -0.784  1.00  0.00    -0.289 N 
HETATM   31  C2  UNL     1       2.673   1.341  -1.363  1.00  0.00     0.258 C 
HETATM   32  H1  UNL     1       1.176   0.860   0.091  1.00  0.00     0.172 HD
HETATM   33  O2  UNL     1       2.875   1.851  -2.501  1.00  0.00    -0.267 OA
BRANCH  31  34
HETATM   34  C3  UNL     1       3.814   0.690  -0.659  1.00  0.00     0.033 C 
HETATM   35  C4  UNL     1       3.799   0.480   0.722  1.00  0.00     0.018 C 
HETATM   36  C5  UNL     1       4.858  -0.164   1.352  1.00  0.00     0.014 C 
HETATM   37  C6  UNL     1       6.003  -0.592   0.632  1.00  0.00    -0.014 C 
HETATM   38  C7  UNL     1       6.101  -0.243  -0.744  1.00  0.00    -0.013 C 
HETATM   39  C20 UNL     1       7.042  -1.347   1.248  1.00  0.00    -0.014 A 
HETATM   40  C8  UNL     1       4.964   0.329  -1.377  1.00  0.00     0.030 C 
HETATM   41  C9  UNL     1       7.325  -0.458  -1.445  1.00  0.00    -0.014 A 
HETATM   42  C10 UNL     1       7.529   0.037  -2.762  1.00  0.00     0.013 A 
HETATM   43  C14 UNL     1       8.406  -1.135  -0.801  1.00  0.00    -0.014 A 
HETATM   44  C11 UNL     1       8.733  -0.153  -3.433  1.00  0.00     0.001 A 
HETATM   45  C12 UNL     1       9.778  -0.809  -2.811  1.00  0.00     0.001 A 
HETATM   46  C13 UNL     1       9.628  -1.285  -1.513  1.00  0.00     0.013 A 
HETATM   47  C15 UNL     1       8.242  -1.630   0.527  1.00  0.00    -0.014 A 
HETATM   48  C16 UNL     1       9.240  -2.417   1.165  1.00  0.00     0.013 A 
HETATM   49  C17 UNL     1       9.074  -2.895   2.460  1.00  0.00     0.001 A 
HETATM   50  C18 UNL     1       7.907  -2.628   3.154  1.00  0.00     0.001 A 
HETATM   51  C19 UNL     1       6.900  -1.875   2.562  1.00  0.00     0.013 A 
ENDBRANCH  31  34
ENDBRANCH   1  28
TORSDOF 2
