REMARK  3 active torsions:
REMARK  status: ('A' for Active; 'I' for Inactive)
REMARK       I    between atoms: N1_12  and  C12_13 
REMARK    1  A    between atoms: C12_13  and  C13_15 
REMARK    2  A    between atoms: C13_15  and  C14_16 
REMARK    3  A    between atoms: C14_16  and  C15_17 
ROOT
HETATM    1  C1  UNL     1      -6.589   1.041  -0.618  1.00  0.00     0.048 C 
HETATM    2  C2  UNL     1      -5.214   0.444  -0.547  1.00  0.00    -0.061 A 
HETATM    3  C3  UNL     1      -4.586  -0.017  -1.707  1.00  0.00     0.007 A 
HETATM    4  C4  UNL     1      -3.326  -0.610  -1.638  1.00  0.00     0.010 A 
HETATM    5  C5  UNL     1      -2.677  -0.790  -0.398  1.00  0.00    -0.029 A 
HETATM    6  C6  UNL     1      -3.293  -0.286   0.776  1.00  0.00    -0.049 A 
HETATM    7  C7  UNL     1      -4.573   0.293   0.688  1.00  0.00     0.014 A 
HETATM    8  C8  UNL     1      -2.647  -0.397   2.147  1.00  0.00     0.041 C 
HETATM    9  C9  UNL     1      -1.141  -0.030   2.270  1.00  0.00     0.029 C 
HETATM   10  C10 UNL     1      -0.443   0.645   1.062  1.00  0.00     0.084 C 
HETATM   11  C11 UNL     1      -1.076   1.998   0.691  1.00  0.00     0.032 C 
HETATM   12  N1  UNL     1      -0.316  -0.252  -0.111  1.00  0.00    -0.339 N 
HETATM   13  C12 UNL     1       0.593   0.145  -1.154  1.00  0.00     0.221 C 
HETATM   14  O1  UNL     1       0.257   1.057  -1.956  1.00  0.00    -0.273 OA
HETATM   15  C21 UNL     1      -1.274  -1.363  -0.315  1.00  0.00     0.117 C 
HETATM   16  C22 UNL     1      -0.910  -2.302  -1.485  1.00  0.00     0.037 C 
ENDROOT
BRANCH  13  17
HETATM   17  C13 UNL     1       1.944  -0.505  -1.300  1.00  0.00     0.120 C 
BRANCH  17  18
HETATM   18  C14 UNL     1       3.040   0.160  -0.434  1.00  0.00     0.035 A 
HETATM   19  C16 UNL     1       4.427  -0.526  -0.629  1.00  0.00     0.027 A 
HETATM   20  C17 UNL     1       4.329  -0.930   0.812  1.00  0.00    -0.038 A 
HETATM   21  C18 UNL     1       4.491  -2.396   1.165  1.00  0.00     0.010 A 
HETATM   22  C19 UNL     1       5.410  -1.330   1.782  1.00  0.00     0.010 A 
HETATM   23  C20 UNL     1       3.003  -0.277   1.063  1.00  0.00     0.027 A 
BRANCH  18  24
HETATM   24  C15 UNL     1       3.119   1.656  -0.638  1.00  0.00     0.174 A 
HETATM   25  N2  UNL     1       2.562   2.570   0.182  1.00  0.00    -0.141 NA
HETATM   26  N3  UNL     1       2.785   3.734  -0.406  1.00  0.00     0.021 NA
HETATM   27  N4  UNL     1       3.436   3.530  -1.537  1.00  0.00    -0.200 N 
HETATM   28  N5  UNL     1       3.655   2.240  -1.726  1.00  0.00    -0.143 NA
HETATM   29  H17 UNL     1       3.729   4.283  -2.197  1.00  0.00     0.208 HD
ENDBRANCH  18  24
ENDBRANCH  17  18
ENDBRANCH  13  17
TORSDOF 3
