REMARK  4 active torsions:
REMARK  status: ('A' for Active; 'I' for Inactive)
REMARK    1  A    between atoms: C5_5  and  C6_6 
REMARK    2  A    between atoms: C6_6  and  O1_7 
REMARK    3  A    between atoms: O1_7  and  C7_8 
REMARK    4  A    between atoms: C10_11  and  C11_12 
REMARK       I    between atoms: C11_12  and  N1_14 
ROOT
HETATM    1  C7  UNL     1       2.154  -2.088   0.913  1.00  0.00     0.069 A 
HETATM    2  C8  UNL     1       2.056  -0.888   1.642  1.00  0.00     0.038 A 
HETATM    3  C9  UNL     1       0.834  -0.217   1.735  1.00  0.00     0.020 A 
HETATM    4  C10 UNL     1      -0.309  -0.726   1.098  1.00  0.00     0.032 A 
HETATM    5  C22 UNL     1      -0.213  -1.934   0.387  1.00  0.00     0.020 A 
HETATM    6  C23 UNL     1       1.010  -2.604   0.295  1.00  0.00     0.038 A 
ENDROOT
BRANCH   4   7
HETATM    7  C11 UNL     1      -1.605  -0.019   1.212  1.00  0.00     0.258 C 
HETATM    8  O2  UNL     1      -1.835   0.693   2.228  1.00  0.00    -0.267 OA
HETATM    9  N1  UNL     1      -2.622  -0.149   0.203  1.00  0.00    -0.304 N 
HETATM   10  C12 UNL     1      -2.317   0.038  -1.220  1.00  0.00     0.235 C 
HETATM   11  C21 UNL     1      -3.988  -0.317   0.603  1.00  0.00     0.046 A 
HETATM   12  C13 UNL     1      -2.667   1.423  -1.691  1.00  0.00     0.238 C 
HETATM   13  O3  UNL     1      -1.860   2.029  -2.446  1.00  0.00    -0.272 OA
HETATM   14  N2  UNL     1      -3.948   2.013  -1.405  1.00  0.00    -0.351 N 
HETATM   15  C14 UNL     1      -4.665   2.696  -2.483  1.00  0.00     0.153 C 
HETATM   16  C15 UNL     1      -4.440   2.084  -0.025  1.00  0.00     0.166 C 
HETATM   17  C16 UNL     1      -4.909   0.735   0.448  1.00  0.00    -0.013 A 
HETATM   18  C17 UNL     1      -6.255   0.531   0.797  1.00  0.00     0.011 A 
HETATM   19  C18 UNL     1      -6.671  -0.703   1.306  1.00  0.00     0.001 A 
HETATM   20  C19 UNL     1      -5.749  -1.738   1.476  1.00  0.00     0.002 A 
HETATM   21  C20 UNL     1      -4.410  -1.546   1.127  1.00  0.00     0.030 A 
ENDBRANCH   4   7
BRANCH   1  22
HETATM   22  O1  UNL     1       3.358  -2.799   0.780  1.00  0.00    -0.347 OA
BRANCH  22  23
HETATM   23  C6  UNL     1       4.633  -2.358   1.250  1.00  0.00     0.214 C 
BRANCH  23  24
HETATM   24  C5  UNL     1       5.126  -1.188   0.440  1.00  0.00    -0.034 A 
HETATM   25  C4  UNL     1       5.576  -0.020   1.074  1.00  0.00     0.010 A 
HETATM   26  C3  UNL     1       6.039   1.060   0.317  1.00  0.00     0.007 A 
HETATM   27  C2  UNL     1       6.056   0.987  -1.084  1.00  0.00    -0.062 A 
HETATM   28  C1  UNL     1       6.590   2.132  -1.894  1.00  0.00     0.048 C 
HETATM   29  C25 UNL     1       5.635  -0.192  -1.717  1.00  0.00     0.007 A 
HETATM   30  C24 UNL     1       5.171  -1.271  -0.961  1.00  0.00     0.010 A 
ENDBRANCH  23  24
ENDBRANCH  22  23
ENDBRANCH   1  22
TORSDOF 4
