REMARK  3 active torsions:
REMARK  status: ('A' for Active; 'I' for Inactive)
REMARK    1  A    between atoms: C1_2  and  C2_3 
REMARK       I    between atoms: C1_2  and  N1_13 
REMARK    2  A    between atoms: N1_13  and  C12_14 
REMARK    3  A    between atoms: C12_14  and  C13_15 
ROOT
HETATM    1  C12 UNL     1      -1.298   0.375   0.042  1.00  0.00     0.090 C 
HETATM    2  C19 UNL     1      -1.307   0.517   1.595  1.00  0.00     0.050 C 
HETATM    3  C20 UNL     1      -1.069  -0.811   2.321  1.00  0.00     0.106 C 
HETATM    4  C21 UNL     1      -2.356  -1.537   2.499  1.00  0.00     0.222 C 
HETATM    5  O2  UNL     1      -2.469  -2.373   3.435  1.00  0.00    -0.273 OA
HETATM    6  N2  UNL     1      -3.482  -1.260   1.663  1.00  0.00    -0.327 N 
HETATM    7  C22 UNL     1      -3.406  -1.246   0.227  1.00  0.00     0.043 A 
HETATM    8  C23 UNL     1      -4.399  -1.971  -0.459  1.00  0.00     0.030 A 
HETATM    9  C24 UNL     1      -4.388  -2.082  -1.845  1.00  0.00     0.002 A 
HETATM   10  C25 UNL     1      -3.383  -1.470  -2.580  1.00  0.00     0.001 A 
HETATM   11  C26 UNL     1      -2.401  -0.725  -1.932  1.00  0.00     0.012 A 
HETATM   12  C27 UNL     1      -2.390  -0.566  -0.524  1.00  0.00     0.001 A 
HETATM   13  H18 UNL     1      -4.418  -1.441   2.091  1.00  0.00     0.169 HD
ENDROOT
BRANCH   1  14
HETATM   14  N1  UNL     1       0.025  -0.169  -0.355  1.00  0.00    -0.339 N 
HETATM   15  C1  UNL     1       1.299   0.430  -0.039  1.00  0.00     0.253 C 
HETATM   16  O1  UNL     1       1.361   1.599   0.430  1.00  0.00    -0.268 OA
HETATM   17  H8  UNL     1       0.060  -1.136  -0.754  1.00  0.00     0.164 HD
BRANCH  15  18
HETATM   18  C2  UNL     1       2.551  -0.303  -0.322  1.00  0.00     0.043 A 
HETATM   19  C3  UNL     1       2.723  -0.848  -1.605  1.00  0.00     0.018 A 
HETATM   20  C4  UNL     1       3.904  -1.503  -1.951  1.00  0.00     0.002 A 
HETATM   21  C5  UNL     1       4.937  -1.626  -1.023  1.00  0.00     0.012 A 
HETATM   22  C6  UNL     1       4.790  -1.107   0.271  1.00  0.00    -0.025 A 
HETATM   23  C7  UNL     1       5.828  -1.249   1.204  1.00  0.00     0.012 A 
HETATM   24  C11 UNL     1       3.586  -0.446   0.639  1.00  0.00    -0.010 A 
HETATM   25  C8  UNL     1       5.680  -0.758   2.502  1.00  0.00     0.001 A 
HETATM   26  C9  UNL     1       4.494  -0.131   2.882  1.00  0.00     0.001 A 
HETATM   27  C10 UNL     1       3.451   0.021   1.965  1.00  0.00     0.013 A 
ENDBRANCH  15  18
ENDBRANCH   1  14
BRANCH   1  28
HETATM   28  C13 UNL     1      -1.541   1.765  -0.590  1.00  0.00    -0.025 A 
HETATM   29  C14 UNL     1      -0.742   2.257  -1.650  1.00  0.00     0.010 A 
HETATM   30  C15 UNL     1      -1.010   3.497  -2.236  1.00  0.00     0.001 A 
HETATM   31  C16 UNL     1      -2.100   4.254  -1.809  1.00  0.00     0.000 A 
HETATM   32  C17 UNL     1      -2.938   3.762  -0.810  1.00  0.00     0.001 A 
HETATM   33  C18 UNL     1      -2.675   2.524  -0.218  1.00  0.00     0.010 A 
ENDBRANCH   1  28
TORSDOF 3
