REMARK  2 active torsions:
REMARK  status: ('A' for Active; 'I' for Inactive)
REMARK    1  A    between atoms: C4_4  and  C5_5 
REMARK       I    between atoms: C5_5  and  N1_7 
REMARK       I    between atoms: N1_7  and  C6_8 
REMARK    2  A    between atoms: C6_8  and  C7_10 
ROOT
HETATM    1  C7  UNL     1       0.967   1.526   0.999  1.00  0.00     0.033 C 
HETATM    2  C8  UNL     1       1.760   2.673   0.955  1.00  0.00     0.018 C 
HETATM    3  C9  UNL     1       3.030   2.628   0.390  1.00  0.00     0.014 C 
HETATM    4  C10 UNL     1       3.571   1.428  -0.132  1.00  0.00    -0.011 C 
HETATM    5  C11 UNL     1       2.824   0.230   0.027  1.00  0.00     0.027 C 
HETATM    6  C12 UNL     1       1.506   0.316   0.542  1.00  0.00     0.033 C 
HETATM    7  C13 UNL     1       3.317  -1.058  -0.259  1.00  0.00     0.194 C 
HETATM    8  O3  UNL     1       2.486  -1.956  -0.580  1.00  0.00    -0.287 OA
HETATM    9  C14 UNL     1       4.639  -1.448   0.026  1.00  0.00     0.026 A 
HETATM   10  C15 UNL     1       4.828  -2.758   0.532  1.00  0.00     0.016 A 
HETATM   11  C16 UNL     1       6.069  -3.186   0.994  1.00  0.00     0.001 A 
HETATM   12  C17 UNL     1       7.155  -2.326   0.957  1.00  0.00     0.001 A 
HETATM   13  C18 UNL     1       7.016  -1.059   0.399  1.00  0.00     0.013 A 
HETATM   14  C19 UNL     1       5.777  -0.608  -0.125  1.00  0.00    -0.011 A 
HETATM   15  C20 UNL     1       5.770   0.544  -0.951  1.00  0.00    -0.014 A 
HETATM   16  C21 UNL     1       6.891   0.765  -1.795  1.00  0.00     0.013 A 
HETATM   17  C22 UNL     1       6.985   1.887  -2.611  1.00  0.00     0.001 A 
HETATM   18  C23 UNL     1       5.964   2.821  -2.620  1.00  0.00     0.001 A 
HETATM   19  C24 UNL     1       4.849   2.637  -1.811  1.00  0.00     0.013 A 
HETATM   20  C25 UNL     1       4.720   1.508  -0.958  1.00  0.00    -0.014 A 
ENDROOT
BRANCH   1  21
HETATM   21  C6  UNL     1      -0.399   1.588   1.573  1.00  0.00     0.258 C 
HETATM   22  N1  UNL     1      -1.401   0.628   1.197  1.00  0.00    -0.289 N 
HETATM   23  C5  UNL     1      -2.639   0.455   1.905  1.00  0.00     0.259 C 
HETATM   24  H5  UNL     1      -1.248   0.049   0.341  1.00  0.00     0.172 HD
HETATM   25  O1  UNL     1      -2.807   0.984   3.038  1.00  0.00    -0.267 OA
HETATM   26  O2  UNL     1      -0.691   2.516   2.377  1.00  0.00    -0.267 OA
BRANCH  23  27
HETATM   27  C4  UNL     1      -3.694  -0.417   1.353  1.00  0.00     0.039 A 
HETATM   28  C3  UNL     1      -4.099  -1.517   2.122  1.00  0.00     0.024 A 
HETATM   29  C2  UNL     1      -5.060  -2.413   1.642  1.00  0.00    -0.060 A 
HETATM   30  C1  UNL     1      -5.498  -3.572   2.488  1.00  0.00     0.048 C 
HETATM   31  C28 UNL     1      -5.655  -2.185   0.398  1.00  0.00     0.014 A 
HETATM   32  C27 UNL     1      -5.286  -1.079  -0.384  1.00  0.00    -0.049 A 
HETATM   33  C26 UNL     1      -4.293  -0.183   0.088  1.00  0.00    -0.034 A 
HETATM   34  C29 UNL     1      -5.964  -0.859  -1.724  1.00  0.00     0.069 C 
HETATM   35  C32 UNL     1      -4.009   1.069  -0.720  1.00  0.00     0.070 C 
HETATM   36  C31 UNL     1      -5.184   2.063  -0.662  1.00  0.00     0.274 C 
HETATM   37  N2  UNL     1      -6.514   1.434  -0.752  1.00  0.00     0.084 N 
HETATM   38  C30 UNL     1      -6.663   0.518  -1.896  1.00  0.00     0.274 C 
HETATM   39  H22 UNL     1      -6.772   0.964   0.147  1.00  0.00     0.315 HD
ENDBRANCH  23  27
ENDBRANCH   1  21
TORSDOF 2
