REMARK  6 active torsions:
REMARK  status: ('A' for Active; 'I' for Inactive)
REMARK       I    between atoms: C1_2  and  N1_3 
REMARK    1  A    between atoms: C1_2  and  C27_31 
REMARK       I    between atoms: N1_3  and  C2_4 
REMARK    2  A    between atoms: C2_4  and  C3_6 
REMARK    3  A    between atoms: C6_9  and  C26_30 
REMARK    4  A    between atoms: C7_10  and  C9_13 
REMARK    5  A    between atoms: C14_18  and  C15_19 
REMARK    6  A    between atoms: C20_24  and  C21_25 
ROOT
HETATM    1  O1  UNL     1      -1.237  -3.925  -2.317  1.00  0.00    -0.267 OA
HETATM    2  C1  UNL     1      -1.575  -2.718  -2.196  1.00  0.00     0.259 C 
HETATM    3  N1  UNL     1      -0.710  -1.669  -2.660  1.00  0.00    -0.289 N 
HETATM    4  C2  UNL     1       0.711  -1.845  -2.721  1.00  0.00     0.261 C 
HETATM    5  O2  UNL     1       1.184  -2.897  -3.231  1.00  0.00    -0.267 OA
HETATM    6  H1  UNL     1      -1.121  -0.717  -2.771  1.00  0.00     0.172 HD
ENDROOT
BRANCH   2   7
HETATM    7  C27 UNL     1      -2.907  -2.406  -1.662  1.00  0.00     0.044 C 
HETATM    8  C28 UNL     1      -3.462  -1.618  -0.729  1.00  0.00    -0.003 C 
HETATM    9  C29 UNL     1      -4.787  -1.993  -1.258  1.00  0.00    -0.041 C 
HETATM   10  C49 UNL     1      -2.942  -0.662   0.299  1.00  0.00    -0.013 C 
HETATM   11  C30 UNL     1      -4.219  -2.928  -2.001  1.00  0.00     0.026 C 
HETATM   12  C31 UNL     1      -6.219  -1.600  -1.097  1.00  0.00     0.078 C 
HETATM   13  C32 UNL     1      -6.369  -0.103  -0.972  1.00  0.00    -0.043 A 
HETATM   14  C33 UNL     1      -6.470   0.688  -2.128  1.00  0.00     0.008 A 
HETATM   15  C37 UNL     1      -6.406   0.519   0.294  1.00  0.00    -0.018 A 
HETATM   16  C34 UNL     1      -6.630   2.074  -2.026  1.00  0.00     0.001 A 
HETATM   17  C35 UNL     1      -6.679   2.683  -0.770  1.00  0.00     0.001 A 
HETATM   18  C36 UNL     1      -6.570   1.909   0.389  1.00  0.00     0.013 A 
HETATM   19  C38 UNL     1      -6.242  -0.298   1.507  1.00  0.00    -0.014 A 
HETATM   20  C39 UNL     1      -7.380  -0.772   2.176  1.00  0.00     0.013 A 
HETATM   21  C43 UNL     1      -4.970  -0.796   1.849  1.00  0.00    -0.014 A 
HETATM   22  C40 UNL     1      -7.255  -1.732   3.183  1.00  0.00     0.001 A 
HETATM   23  C41 UNL     1      -5.995  -2.236   3.516  1.00  0.00     0.001 A 
HETATM   24  C42 UNL     1      -4.856  -1.763   2.860  1.00  0.00     0.013 A 
HETATM   25  C44 UNL     1      -3.738  -0.144   1.360  1.00  0.00    -0.014 C 
HETATM   26  C45 UNL     1      -3.244   0.908   2.153  1.00  0.00     0.013 C 
HETATM   27  C46 UNL     1      -1.948   1.384   1.978  1.00  0.00     0.001 C 
HETATM   28  C47 UNL     1      -1.113   0.786   1.035  1.00  0.00     0.001 C 
HETATM   29  C48 UNL     1      -1.602  -0.232   0.217  1.00  0.00     0.013 C 
ENDBRANCH   2   7
BRANCH   4  30
HETATM   30  C3  UNL     1       1.634  -0.839  -2.138  1.00  0.00     0.071 C 
HETATM   31  C4  UNL     1       1.261   0.509  -2.012  1.00  0.00     0.021 C 
HETATM   32  C5  UNL     1       2.154   1.441  -1.476  1.00  0.00     0.014 C 
HETATM   33  C6  UNL     1       3.439   1.034  -1.065  1.00  0.00    -0.011 C 
HETATM   34  C7  UNL     1       3.608  -0.335  -0.798  1.00  0.00     0.026 C 
HETATM   35  C8  UNL     1       2.846  -1.250  -1.553  1.00  0.00     0.144 C 
HETATM   36  F1  UNL     1       3.126  -2.576  -1.446  1.00  0.00    -0.204 F 
BRANCH  33  37
HETATM   37  C26 UNL     1       4.608   1.828  -1.570  1.00  0.00    -0.014 A 
HETATM   38  C21 UNL     1       5.887   1.897  -0.930  1.00  0.00    -0.014 A 
HETATM   39  C22 UNL     1       6.956   2.516  -1.632  1.00  0.00     0.013 A 
HETATM   40  C23 UNL     1       6.775   3.108  -2.874  1.00  0.00     0.001 A 
HETATM   41  C24 UNL     1       5.527   3.086  -3.474  1.00  0.00     0.001 A 
HETATM   42  C25 UNL     1       4.468   2.442  -2.845  1.00  0.00     0.013 A 
BRANCH  38  43
HETATM   43  C20 UNL     1       6.208   1.374   0.440  1.00  0.00    -0.014 C 
HETATM   44  C15 UNL     1       6.213  -0.019   0.681  1.00  0.00    -0.014 C 
HETATM   45  C16 UNL     1       7.430  -0.612   1.085  1.00  0.00     0.013 C 
HETATM   46  C17 UNL     1       8.439   0.183   1.637  1.00  0.00     0.001 C 
HETATM   47  C18 UNL     1       8.235   1.557   1.773  1.00  0.00     0.001 C 
HETATM   48  C19 UNL     1       7.109   2.155   1.198  1.00  0.00     0.013 C 
BRANCH  44  49
HETATM   49  C14 UNL     1       4.995  -0.593   1.310  1.00  0.00    -0.014 A 
HETATM   50  C9  UNL     1       3.767  -0.705   0.626  1.00  0.00    -0.011 A 
HETATM   51  C10 UNL     1       2.621  -1.141   1.338  1.00  0.00     0.013 A 
HETATM   52  C11 UNL     1       2.702  -1.503   2.679  1.00  0.00     0.001 A 
HETATM   53  C12 UNL     1       3.917  -1.412   3.349  1.00  0.00     0.001 A 
HETATM   54  C13 UNL     1       5.045  -0.947   2.682  1.00  0.00     0.013 A 
ENDBRANCH  44  49
ENDBRANCH  38  43
ENDBRANCH  33  37
ENDBRANCH   4  30
TORSDOF 6
