REMARK  5 active torsions:
REMARK  status: ('A' for Active; 'I' for Inactive)
REMARK       I    between atoms: N1_8  and  C8_9 
REMARK    1  A    between atoms: C8_9  and  C9_11 
REMARK    2  A    between atoms: C9_11  and  N2_12 
REMARK    3  A    between atoms: N2_12  and  C10_13 
REMARK    4  A    between atoms: C11_15  and  N4_16 
REMARK    5  A    between atoms: C12_18  and  C13_19 
ROOT
HETATM    1  C1  UNL     1       0.335  -0.406   2.194  1.00  0.00     0.050 C 
HETATM    2  C2  UNL     1      -1.011  -1.079   2.187  1.00  0.00    -0.032 A 
HETATM    3  C3  UNL     1      -1.336  -1.966   3.224  1.00  0.00     0.009 A 
HETATM    4  C4  UNL     1      -2.571  -2.614   3.239  1.00  0.00     0.003 A 
HETATM    5  C5  UNL     1      -3.499  -2.373   2.227  1.00  0.00     0.039 A 
HETATM    6  C6  UNL     1      -3.207  -1.485   1.186  1.00  0.00     0.097 A 
HETATM    7  C7  UNL     1      -1.939  -0.862   1.136  1.00  0.00     0.076 A 
HETATM    8  N1  UNL     1      -1.576  -0.068  -0.009  1.00  0.00    -0.314 N 
HETATM    9  C8  UNL     1      -0.517  -0.534  -0.877  1.00  0.00     0.242 C 
HETATM   10  O1  UNL     1      -0.181  -1.751  -0.846  1.00  0.00    -0.271 OA
HETATM   11  C16 UNL     1      -2.237   1.226  -0.226  1.00  0.00     0.135 C 
HETATM   12  C17 UNL     1      -3.741   1.176   0.084  1.00  0.00     0.058 C 
HETATM   13  C18 UNL     1      -4.479  -0.063  -0.509  1.00  0.00     0.062 C 
HETATM   14  C19 UNL     1      -5.993   0.185  -0.391  1.00  0.00     0.046 C 
HETATM   15  C20 UNL     1      -4.141  -0.283  -1.998  1.00  0.00     0.046 C 
HETATM   16  O2  UNL     1      -4.203  -1.274   0.218  1.00  0.00    -0.339 OA
ENDROOT
BRANCH   9  17
HETATM   17  C9  UNL     1       0.156   0.374  -1.875  1.00  0.00     0.241 C 
BRANCH  17  18
HETATM   18  N2  UNL     1       1.546  -0.027  -2.086  1.00  0.00    -0.213 N 
HETATM   19  H9  UNL     1       1.786  -0.572  -2.947  1.00  0.00     0.178 HD
BRANCH  18  20
HETATM   20  C10 UNL     1       2.594   0.321  -1.172  1.00  0.00     0.740 A 
HETATM   21  N3  UNL     1       2.328   1.064  -0.065  1.00  0.00     0.130 NA
HETATM   22  C11 UNL     1       3.326   1.396   0.793  1.00  0.00     0.737 A 
HETATM   23  N5  UNL     1       4.596   0.992   0.539  1.00  0.00    -0.046 NA
HETATM   24  C12 UNL     1       4.871   0.263  -0.573  1.00  0.00     0.168 A 
HETATM   25  N6  UNL     1       3.867  -0.083  -1.419  1.00  0.00    -0.046 NA
BRANCH  22  26
HETATM   26  N4  UNL     1       3.038   2.159   1.962  1.00  0.00    -0.230 N 
HETATM   27  H10 UNL     1       3.803   2.412   2.627  1.00  0.00     0.174 HD
HETATM   28  H11 UNL     1       2.064   2.476   2.163  1.00  0.00     0.174 HD
ENDBRANCH  22  26
BRANCH  24  29
HETATM   29  C13 UNL     1       6.273  -0.197  -0.830  1.00  0.00     0.059 A 
HETATM   30  C14 UNL     1       7.242   0.936  -1.148  1.00  0.00     0.013 A 
HETATM   31  C15 UNL     1       6.780  -0.001  -2.253  1.00  0.00     0.013 A 
ENDBRANCH  24  29
ENDBRANCH  18  20
ENDBRANCH  17  18
ENDBRANCH   9  17
TORSDOF 5
