REMARK  3 active torsions:
REMARK  status: ('A' for Active; 'I' for Inactive)
REMARK    1  A    between atoms: C1_2  and  C2_3 
REMARK    2  A    between atoms: C1_2  and  C15_18 
REMARK    3  A    between atoms: C24_27  and  O4_28 
ROOT
HETATM    1  O1  UNL     1      -0.208   1.314   1.840  1.00  0.00    -0.287 OA
HETATM    2  C1  UNL     1      -0.115   0.672   0.758  1.00  0.00     0.192 C 
ENDROOT
BRANCH   2   3
HETATM    3  C2  UNL     1      -1.317   0.539  -0.102  1.00  0.00     0.016 A 
HETATM    4  C3  UNL     1      -2.593   0.451   0.483  1.00  0.00     0.030 A 
HETATM    5  C4  UNL     1      -3.755   0.341  -0.318  1.00  0.00     0.010 A 
HETATM    6  C5  UNL     1      -3.602   0.333  -1.727  1.00  0.00     0.090 A 
HETATM    7  C14 UNL     1      -5.072   0.237   0.210  1.00  0.00    -0.007 A 
HETATM    8  C6  UNL     1      -2.333   0.437  -2.302  1.00  0.00     0.039 A 
HETATM    9  O2  UNL     1      -4.656   0.231  -2.526  1.00  0.00    -0.274 OA
HETATM   10  C7  UNL     1      -1.200   0.545  -1.499  1.00  0.00     0.018 A 
HETATM   11  C8  UNL     1      -5.899   0.130  -2.079  1.00  0.00     0.299 A 
HETATM   12  O3  UNL     1      -6.839   0.036  -2.913  1.00  0.00    -0.259 OA
HETATM   13  C9  UNL     1      -6.161   0.129  -0.697  1.00  0.00     0.051 A 
HETATM   14  C10 UNL     1      -7.478   0.023  -0.210  1.00  0.00     0.018 A 
HETATM   15  C11 UNL     1      -7.725   0.024   1.161  1.00  0.00     0.001 A 
HETATM   16  C12 UNL     1      -6.668   0.130   2.061  1.00  0.00     0.001 A 
HETATM   17  C13 UNL     1      -5.354   0.235   1.598  1.00  0.00     0.013 A 
ENDBRANCH   2   3
BRANCH   2  18
HETATM   18  C15 UNL     1       1.193   0.079   0.389  1.00  0.00     0.016 A 
HETATM   19  C16 UNL     1       1.256  -1.149  -0.358  1.00  0.00     0.016 A 
HETATM   20  C17 UNL     1       2.496  -1.738  -0.705  1.00  0.00     0.014 A 
HETATM   21  C18 UNL     1       3.618  -1.059  -0.269  1.00  0.00    -0.014 A 
HETATM   22  C19 UNL     1       3.570   0.089   0.444  1.00  0.00    -0.013 A 
HETATM   23  C27 UNL     1       5.074  -1.021  -0.222  1.00  0.00    -0.013 A 
HETATM   24  C20 UNL     1       2.394   0.715   0.815  1.00  0.00     0.028 A 
HETATM   25  C21 UNL     1       5.030   0.123   0.489  1.00  0.00    -0.014 A 
HETATM   26  C22 UNL     1       6.078   1.014   1.061  1.00  0.00     0.016 A 
HETATM   27  C23 UNL     1       7.421   0.810   0.957  1.00  0.00     0.038 A 
HETATM   28  C24 UNL     1       8.082  -0.335   0.256  1.00  0.00     0.076 A 
HETATM   29  C25 UNL     1       7.319  -1.219  -0.307  1.00  0.00     0.011 A 
HETATM   30  C26 UNL     1       6.224  -1.793  -0.682  1.00  0.00     0.028 A 
BRANCH  28  31
HETATM   31  O4  UNL     1       9.466  -0.459   0.202  1.00  0.00    -0.360 OA
HETATM   32  H13 UNL     1      10.069   0.228   0.639  1.00  0.00     0.217 HD
ENDBRANCH  28  31
ENDBRANCH   2  18
TORSDOF 3
