REMARK  2 active torsions:
REMARK  status: ('A' for Active; 'I' for Inactive)
REMARK    1  A    between atoms: C5_5  and  C6_6 
REMARK    2  A    between atoms: C10_10  and  C11_11 
ROOT
HETATM    1  C6  UNL     1       1.795  -1.242  -0.012  1.00  0.00    -0.020 A 
HETATM    2  C7  UNL     1       1.899  -2.546   0.498  1.00  0.00     0.012 A 
HETATM    3  C8  UNL     1       0.751  -3.300   0.747  1.00  0.00     0.002 A 
HETATM    4  C9  UNL     1      -0.512  -2.766   0.482  1.00  0.00     0.012 A 
HETATM    5  C10 UNL     1      -0.641  -1.469  -0.046  1.00  0.00    -0.023 A 
HETATM    6  C22 UNL     1       0.521  -0.713  -0.287  1.00  0.00     0.024 A 
ENDROOT
BRANCH   5   7
HETATM    7  C11 UNL     1      -1.983  -0.884  -0.318  1.00  0.00     0.003 C 
HETATM    8  C12 UNL     1      -2.948  -1.649  -0.897  1.00  0.00     0.014 C 
HETATM    9  C13 UNL     1      -4.414  -1.415  -1.158  1.00  0.00     0.002 C 
HETATM   10  C14 UNL     1      -5.226  -0.355  -0.952  1.00  0.00     0.013 C 
HETATM   11  C15 UNL     1      -4.809   0.973  -0.507  1.00  0.00    -0.019 C 
HETATM   12  C16 UNL     1      -5.112   1.377   0.737  1.00  0.00     0.016 C 
HETATM   13  C21 UNL     1      -3.773   1.656  -1.289  1.00  0.00     0.128 C 
HETATM   14  C17 UNL     1      -4.276   2.352   1.478  1.00  0.00     0.043 C 
HETATM   15  C18 UNL     1      -2.972   2.135   1.740  1.00  0.00     0.118 C 
HETATM   16  F1  UNL     1      -2.321   2.984   2.573  1.00  0.00    -0.206 F 
HETATM   17  C19 UNL     1      -2.280   0.894   1.319  1.00  0.00     0.074 C 
HETATM   18  C20 UNL     1      -2.183   0.528   0.030  1.00  0.00     0.070 C 
HETATM   19  N1  UNL     1      -2.531   1.435  -1.019  1.00  0.00    -0.259 NA
ENDBRANCH   5   7
BRANCH   1  20
HETATM   20  C5  UNL     1       3.018  -0.442  -0.275  1.00  0.00     0.042 A 
HETATM   21  C4  UNL     1       4.084  -1.012  -0.985  1.00  0.00     0.020 A 
HETATM   22  C3  UNL     1       5.233  -0.268  -1.246  1.00  0.00     0.025 A 
HETATM   23  C2  UNL     1       5.324   1.049  -0.781  1.00  0.00     0.008 A 
HETATM   24  C1  UNL     1       6.539   1.872  -1.090  1.00  0.00     0.068 C 
HETATM   25  N2  UNL     1       4.278   1.598  -0.099  1.00  0.00    -0.327 N 
HETATM   26  C23 UNL     1       3.145   0.890   0.172  1.00  0.00     0.256 A 
HETATM   27  H17 UNL     1       4.345   2.588   0.232  1.00  0.00     0.169 HD
HETATM   28  O1  UNL     1       2.222   1.433   0.839  1.00  0.00    -0.267 OA
ENDBRANCH   1  20
TORSDOF 2
