REMARK  3 active torsions:
REMARK  status: ('A' for Active; 'I' for Inactive)
REMARK    1  A    between atoms: C7_7  and  C8_8 
REMARK    2  A    between atoms: C8_8  and  C9_10 
REMARK    3  A    between atoms: C10_12  and  C11_13 
ROOT
HETATM    1  C9  UNL     1       2.841  -1.269   0.500  1.00  0.00     0.147 A 
HETATM    2  N1  UNL     1       1.679  -0.574   0.367  1.00  0.00    -0.241 NA
HETATM    3  C10 UNL     1       0.463  -1.094   0.683  1.00  0.00     0.068 A 
HETATM    4  C21 UNL     1       0.393  -2.399   1.196  1.00  0.00     0.042 A 
HETATM    5  C22 UNL     1       1.567  -3.148   1.356  1.00  0.00    -0.019 A 
HETATM    6  C23 UNL     1       1.510  -4.549   1.893  1.00  0.00     0.051 C 
HETATM    7  C24 UNL     1       2.801  -2.582   1.000  1.00  0.00     0.155 A 
HETATM    8  F1  UNL     1       3.939  -3.312   1.133  1.00  0.00    -0.203 F 
ENDROOT
BRANCH   3   9
HETATM    9  C11 UNL     1      -0.751  -0.259   0.491  1.00  0.00    -0.006 A 
HETATM   10  C12 UNL     1      -0.653   1.138   0.580  1.00  0.00     0.014 A 
HETATM   11  C13 UNL     1      -1.775   1.943   0.384  1.00  0.00     0.011 A 
HETATM   12  C14 UNL     1      -3.022   1.372   0.088  1.00  0.00    -0.017 A 
HETATM   13  C15 UNL     1      -3.143  -0.035   0.009  1.00  0.00     0.019 A 
HETATM   14  C20 UNL     1      -4.201   2.274  -0.200  1.00  0.00     0.309 C 
HETATM   15  C16 UNL     1      -1.999  -0.834   0.192  1.00  0.00     0.029 A 
HETATM   16  C17 UNL     1      -4.454  -0.695  -0.235  1.00  0.00     0.161 C 
HETATM   17  O2  UNL     1      -4.482  -1.799  -0.843  1.00  0.00    -0.292 OA
HETATM   18  C18 UNL     1      -5.766  -0.105   0.226  1.00  0.00     0.114 C 
HETATM   19  C19 UNL     1      -5.596   0.925   1.357  1.00  0.00     0.277 C 
HETATM   20  N2  UNL     1      -5.206   2.263   0.876  1.00  0.00     0.087 N 
HETATM   21  H15 UNL     1      -4.822   2.800   1.689  1.00  0.00     0.316 HD
ENDBRANCH   3   9
BRANCH   1  22
HETATM   22  C8  UNL     1       4.116  -0.613   0.126  1.00  0.00     0.214 C 
HETATM   23  O1  UNL     1       5.214  -1.088   0.521  1.00  0.00    -0.285 OA
BRANCH  22  24
HETATM   24  C7  UNL     1       4.125   0.641  -0.659  1.00  0.00     0.022 A 
HETATM   25  C2  UNL     1       3.530   0.736  -1.944  1.00  0.00    -0.048 A 
HETATM   26  C1  UNL     1       2.889  -0.446  -2.622  1.00  0.00     0.049 C 
HETATM   27  C3  UNL     1       3.525   1.976  -2.607  1.00  0.00     0.007 A 
HETATM   28  C4  UNL     1       4.136   3.092  -2.032  1.00  0.00     0.001 A 
HETATM   29  C5  UNL     1       4.757   2.986  -0.787  1.00  0.00     0.001 A 
HETATM   30  C6  UNL     1       4.754   1.768  -0.105  1.00  0.00     0.016 A 
ENDBRANCH  22  24
ENDBRANCH   1  22
TORSDOF 3
