REMARK  4 active torsions:
REMARK  status: ('A' for Active; 'I' for Inactive)
REMARK    1  A    between atoms: C2_2  and  O1_3 
REMARK    2  A    between atoms: O1_3  and  C3_4 
REMARK    3  A    between atoms: N1_8  and  C7_9 
REMARK    4  A    between atoms: C11_14  and  N3_15 
ROOT
HETATM    1  C3  UNL     1      -1.833  -0.157   0.886  1.00  0.00     0.156 C 
HETATM    2  C4  UNL     1      -2.050   0.633   2.187  1.00  0.00     0.038 C 
HETATM    3  C5  UNL     1      -1.177   1.895   2.316  1.00  0.00     0.023 C 
HETATM    4  C6  UNL     1       0.268   1.680   1.838  1.00  0.00     0.131 C 
HETATM    5  N1  UNL     1       0.408   1.671   0.369  1.00  0.00    -0.329 N 
HETATM    6  C16 UNL     1      -0.715   1.623  -0.551  1.00  0.00     0.048 A 
HETATM    7  C17 UNL     1      -0.717   2.446  -1.695  1.00  0.00     0.072 A 
HETATM    8  C18 UNL     1      -1.810   2.464  -2.562  1.00  0.00     0.118 A 
HETATM    9  F1  UNL     1      -1.797   3.270  -3.651  1.00  0.00    -0.206 F 
HETATM   10  C19 UNL     1      -2.922   1.668  -2.299  1.00  0.00     0.043 A 
HETATM   11  C20 UNL     1      -2.940   0.837  -1.179  1.00  0.00     0.015 A 
HETATM   12  C21 UNL     1      -1.831   0.779  -0.311  1.00  0.00    -0.002 A 
ENDROOT
BRANCH   5  13
HETATM   13  C7  UNL     1       1.738   1.836  -0.146  1.00  0.00     0.157 A 
HETATM   14  N2  UNL     1       2.229   3.092  -0.333  1.00  0.00    -0.241 NA
HETATM   15  C8  UNL     1       3.490   3.312  -0.789  1.00  0.00     0.119 A 
HETATM   16  C9  UNL     1       4.330   2.234  -1.069  1.00  0.00     0.022 A 
HETATM   17  C10 UNL     1       3.862   0.935  -0.870  1.00  0.00     0.035 A 
HETATM   18  C11 UNL     1       2.558   0.722  -0.403  1.00  0.00     0.077 A 
BRANCH  18  19
HETATM   19  N3  UNL     1       2.092  -0.614  -0.167  1.00  0.00    -0.367 N 
HETATM   20  C12 UNL     1       2.721  -1.382   0.913  1.00  0.00     0.143 C 
HETATM   21  C13 UNL     1       1.735  -2.399   1.475  1.00  0.00     0.142 C 
HETATM   22  N4  UNL     1       1.199  -3.224   0.401  1.00  0.00    -0.358 N 
HETATM   23  C14 UNL     1       0.954  -2.686  -0.903  1.00  0.00     0.235 C 
HETATM   24  H20 UNL     1       0.914  -4.207   0.612  1.00  0.00     0.162 HD
HETATM   25  O2  UNL     1       0.375  -3.395  -1.768  1.00  0.00    -0.272 OA
HETATM   26  C15 UNL     1       1.397  -1.296  -1.268  1.00  0.00     0.225 C 
ENDBRANCH  18  19
ENDBRANCH   5  13
BRANCH   1  27
HETATM   27  O1  UNL     1      -2.856  -1.137   0.788  1.00  0.00    -0.382 OA
BRANCH  27  28
HETATM   28  C2  UNL     1      -2.403  -2.265   0.069  1.00  0.00     0.164 C 
HETATM   29  C1  UNL     1      -3.578  -3.191  -0.200  1.00  0.00     0.033 C 
ENDBRANCH  27  28
ENDBRANCH   1  27
TORSDOF 4
