REMARK  2 active torsions:
REMARK  status: ('A' for Active; 'I' for Inactive)
REMARK       I    between atoms: C1_2  and  N1_3 
REMARK    1  A    between atoms: C1_2  and  C12_14 
REMARK    2  A    between atoms: N1_3  and  C2_4 
ROOT
HETATM    1  C12 UNL     1      -0.243   0.614  -1.377  1.00  0.00     0.032 A 
HETATM    2  C13 UNL     1       0.631   1.156  -2.335  1.00  0.00     0.018 A 
HETATM    3  C14 UNL     1       1.891   1.624  -1.960  1.00  0.00     0.014 A 
HETATM    4  C15 UNL     1       2.306   1.550  -0.624  1.00  0.00    -0.018 A 
HETATM    5  C16 UNL     1       1.433   1.028   0.352  1.00  0.00    -0.039 A 
HETATM    6  C17 UNL     1       0.173   0.543  -0.036  1.00  0.00     0.025 A 
HETATM    7  C18 UNL     1       1.852   0.951   1.803  1.00  0.00     0.123 C 
HETATM    8  C19 UNL     1       2.616  -0.308   2.110  1.00  0.00     0.164 C 
HETATM    9  O2  UNL     1       2.531  -0.782   3.276  1.00  0.00    -0.292 OA
HETATM   10  C20 UNL     1       3.447  -1.027   1.110  1.00  0.00     0.021 A 
HETATM   11  C21 UNL     1       3.328  -2.428   1.051  1.00  0.00     0.016 A 
HETATM   12  C22 UNL     1       4.085  -3.173   0.147  1.00  0.00     0.001 A 
HETATM   13  C23 UNL     1       4.982  -2.534  -0.706  1.00  0.00     0.001 A 
HETATM   14  C24 UNL     1       5.127  -1.149  -0.655  1.00  0.00     0.013 A 
HETATM   15  C25 UNL     1       4.369  -0.378   0.245  1.00  0.00    -0.011 A 
HETATM   16  C26 UNL     1       4.611   1.086   0.264  1.00  0.00    -0.014 A 
HETATM   17  C27 UNL     1       5.870   1.560   0.666  1.00  0.00     0.013 A 
HETATM   18  C28 UNL     1       6.179   2.920   0.573  1.00  0.00     0.001 A 
HETATM   19  C29 UNL     1       5.241   3.816   0.060  1.00  0.00     0.001 A 
HETATM   20  C30 UNL     1       3.988   3.359  -0.354  1.00  0.00     0.013 A 
HETATM   21  C31 UNL     1       3.662   1.997  -0.252  1.00  0.00    -0.014 A 
ENDROOT
BRANCH   1  22
HETATM   22  C1  UNL     1      -1.569   0.098  -1.791  1.00  0.00     0.252 C 
HETATM   23  O1  UNL     1      -1.740  -0.287  -2.980  1.00  0.00    -0.268 OA
HETATM   24  N1  UNL     1      -2.663   0.042  -0.861  1.00  0.00    -0.348 N 
HETATM   25  H1  UNL     1      -2.588   0.565   0.041  1.00  0.00     0.163 HD
BRANCH  24  26
HETATM   26  C2  UNL     1      -3.881  -0.731  -1.132  1.00  0.00     0.118 C 
HETATM   27  C3  UNL     1      -3.605  -2.233  -0.951  1.00  0.00     0.030 C 
HETATM   28  C4  UNL     1      -3.471  -2.583   0.531  1.00  0.00     0.007 C 
HETATM   29  C5  UNL     1      -4.786  -2.311   1.266  1.00  0.00     0.039 C 
HETATM   30  C6  UNL     1      -5.369  -0.955   0.940  1.00  0.00    -0.050 A 
HETATM   31  C7  UNL     1      -6.376  -0.436   1.771  1.00  0.00     0.007 A 
HETATM   32  C11 UNL     1      -5.004  -0.250  -0.233  1.00  0.00    -0.029 A 
HETATM   33  C8  UNL     1      -6.990   0.781   1.466  1.00  0.00     0.001 A 
HETATM   34  C9  UNL     1      -6.614   1.487   0.322  1.00  0.00     0.001 A 
HETATM   35  C10 UNL     1      -5.625   0.977  -0.521  1.00  0.00     0.010 A 
ENDBRANCH  24  26
ENDBRANCH   1  22
TORSDOF 2
