REMARK  0 active torsions:
REMARK  status: ('A' for Active; 'I' for Inactive)
ROOT
HETATM    1  C1  UNL     1       3.805  -1.527  -2.633  1.00  0.00     0.048 C 
HETATM    2  C2  UNL     1       3.065  -1.149  -1.383  1.00  0.00    -0.061 A 
HETATM    3  C3  UNL     1       3.126  -1.965  -0.255  1.00  0.00     0.007 A 
HETATM    4  C4  UNL     1       2.456  -1.603   0.909  1.00  0.00     0.009 A 
HETATM    5  C5  UNL     1       1.718  -0.406   0.988  1.00  0.00    -0.040 A 
HETATM    6  C6  UNL     1       1.649   0.446  -0.164  1.00  0.00     0.039 A 
HETATM    7  C7  UNL     1       2.349   0.052  -1.327  1.00  0.00     0.024 A 
HETATM    8  C8  UNL     1       0.827   1.697  -0.259  1.00  0.00     0.256 C 
HETATM    9  O1  UNL     1       0.806   2.350  -1.338  1.00  0.00    -0.267 OA
HETATM   10  N1  UNL     1       0.053   2.194   0.829  1.00  0.00    -0.322 N 
HETATM   11  C9  UNL     1      -1.383   2.092   0.917  1.00  0.00     0.046 A 
HETATM   12  C10 UNL     1      -2.064   3.047   1.692  1.00  0.00     0.030 A 
HETATM   13  C11 UNL     1      -3.440   2.952   1.903  1.00  0.00     0.002 A 
HETATM   14  C12 UNL     1      -4.159   1.894   1.353  1.00  0.00     0.001 A 
HETATM   15  C13 UNL     1      -3.506   0.928   0.588  1.00  0.00     0.014 A 
HETATM   16  C14 UNL     1      -2.121   1.006   0.364  1.00  0.00     0.004 A 
HETATM   17  C15 UNL     1      -1.519  -0.027  -0.501  1.00  0.00     0.013 A 
HETATM   18  C16 UNL     1      -1.597   0.182  -1.890  1.00  0.00     0.015 A 
HETATM   19  C17 UNL     1      -1.158  -0.794  -2.783  1.00  0.00     0.004 A 
HETATM   20  C18 UNL     1      -0.665  -2.005  -2.305  1.00  0.00     0.045 A 
HETATM   21  C19 UNL     1      -0.595  -2.239  -0.931  1.00  0.00     0.150 A 
HETATM   22  F1  UNL     1      -0.099  -3.420  -0.485  1.00  0.00    -0.203 F 
HETATM   23  C20 UNL     1      -0.990  -1.254  -0.011  1.00  0.00     0.118 A 
HETATM   24  O2  UNL     1      -0.815  -1.566   1.350  1.00  0.00    -0.347 OA
HETATM   25  C21 UNL     1      -0.438  -0.679   2.409  1.00  0.00     0.180 C 
HETATM   26  C22 UNL     1       1.013  -0.142   2.309  1.00  0.00     0.066 C 
HETATM   27  H7  UNL     1       0.537   2.887   1.445  1.00  0.00     0.169 HD
ENDROOT
TORSDOF 0
