REMARK  3 active torsions:
REMARK  status: ('A' for Active; 'I' for Inactive)
REMARK    1  A    between atoms: C1_2  and  C2_3 
REMARK    2  A    between atoms: C1_2  and  C20_24 
REMARK    3  A    between atoms: C13_17  and  C14_18 
ROOT
HETATM    1  C20 UNL     1      -0.479   1.726   1.371  1.00  0.00     0.017 A 
HETATM    2  C21 UNL     1      -0.611   2.279   0.088  1.00  0.00     0.016 A 
HETATM    3  C22 UNL     1      -1.870   2.471  -0.476  1.00  0.00     0.014 A 
HETATM    4  C23 UNL     1      -3.027   2.106   0.227  1.00  0.00    -0.011 A 
HETATM    5  C24 UNL     1      -2.914   1.574   1.537  1.00  0.00     0.027 A 
HETATM    6  C25 UNL     1      -1.634   1.417   2.102  1.00  0.00     0.031 A 
HETATM    7  C26 UNL     1      -4.087   1.295   2.403  1.00  0.00     0.194 C 
HETATM    8  O4  UNL     1      -4.077   1.809   3.555  1.00  0.00    -0.287 OA
HETATM    9  C27 UNL     1      -5.265   0.456   2.029  1.00  0.00     0.026 A 
HETATM   10  C28 UNL     1      -6.496   0.757   2.652  1.00  0.00     0.016 A 
HETATM   11  C29 UNL     1      -7.623  -0.041   2.459  1.00  0.00     0.001 A 
HETATM   12  C30 UNL     1      -7.546  -1.166   1.643  1.00  0.00     0.001 A 
HETATM   13  C31 UNL     1      -6.348  -1.489   1.010  1.00  0.00     0.013 A 
HETATM   14  C32 UNL     1      -5.205  -0.690   1.184  1.00  0.00    -0.011 A 
HETATM   15  C33 UNL     1      -4.050  -1.009   0.325  1.00  0.00    -0.014 A 
HETATM   16  C34 UNL     1      -3.198  -2.070   0.651  1.00  0.00     0.013 A 
HETATM   17  C35 UNL     1      -2.193  -2.462  -0.244  1.00  0.00     0.001 A 
HETATM   18  C36 UNL     1      -2.051  -1.811  -1.474  1.00  0.00     0.001 A 
HETATM   19  C37 UNL     1      -2.906  -0.761  -1.812  1.00  0.00     0.013 A 
HETATM   20  C38 UNL     1      -3.908  -0.354  -0.916  1.00  0.00    -0.014 A 
HETATM   21  C39 UNL     1      -4.672   0.881  -1.177  1.00  0.00    -0.014 A 
HETATM   22  C40 UNL     1      -5.816   0.861  -1.985  1.00  0.00     0.013 A 
HETATM   23  C41 UNL     1      -6.574   2.026  -2.155  1.00  0.00     0.001 A 
HETATM   24  C42 UNL     1      -6.188   3.214  -1.526  1.00  0.00     0.001 A 
HETATM   25  C43 UNL     1      -5.047   3.241  -0.719  1.00  0.00     0.013 A 
HETATM   26  C44 UNL     1      -4.293   2.073  -0.529  1.00  0.00    -0.014 A 
ENDROOT
BRANCH   1  27
HETATM   27  C1  UNL     1       0.867   1.457   1.934  1.00  0.00     0.208 C 
HETATM   28  O1  UNL     1       1.071   1.609   3.168  1.00  0.00    -0.285 OA
BRANCH  27  29
HETATM   29  C2  UNL     1       1.981   1.027   1.060  1.00  0.00     0.087 A 
HETATM   30  C3  UNL     1       1.745   0.090   0.033  1.00  0.00     0.049 A 
HETATM   31  C4  UNL     1       2.788  -0.169  -0.845  1.00  0.00     0.014 A 
HETATM   32  C5  UNL     1       4.019   0.414  -0.717  1.00  0.00     0.057 A 
HETATM   33  C8  UNL     1       2.892  -1.004  -2.010  1.00  0.00     0.081 C 
HETATM   34  C6  UNL     1       4.245   1.312   0.326  1.00  0.00     0.256 A 
HETATM   35  C7  UNL     1       4.915  -0.059  -1.843  1.00  0.00     0.202 C 
HETATM   36  O2  UNL     1       5.361   1.879   0.451  1.00  0.00    -0.268 OA
HETATM   37  N1  UNL     1       3.227   1.589   1.198  1.00  0.00    -0.320 N 
HETATM   38  H2  UNL     1       3.395   2.280   1.967  1.00  0.00     0.169 HD
HETATM   39  O3  UNL     1       3.971  -0.571  -2.753  1.00  0.00    -0.335 OA
HETATM   40  C13 UNL     1       5.804  -1.215  -1.383  1.00  0.00    -0.014 C 
HETATM   41  C12 UNL     1       5.677  -2.521  -1.792  1.00  0.00     0.011 C 
HETATM   42  C11 UNL     1       4.732  -3.214  -2.745  1.00  0.00     0.001 C 
HETATM   43  C10 UNL     1       3.375  -3.209  -2.782  1.00  0.00     0.003 C 
HETATM   44  C9  UNL     1       2.506  -2.262  -2.068  1.00  0.00     0.037 C 
BRANCH  40  45
HETATM   45  C14 UNL     1       6.916  -0.892  -0.434  1.00  0.00    -0.027 A 
HETATM   46  C15 UNL     1       7.733   0.241  -0.631  1.00  0.00     0.012 A 
HETATM   47  C16 UNL     1       8.804   0.501   0.233  1.00  0.00     0.001 A 
HETATM   48  C17 UNL     1       9.089  -0.373   1.287  1.00  0.00     0.000 A 
HETATM   49  C18 UNL     1       8.289  -1.496   1.495  1.00  0.00     0.001 A 
HETATM   50  C19 UNL     1       7.198  -1.746   0.652  1.00  0.00     0.012 A 
ENDBRANCH  40  45
ENDBRANCH  27  29
ENDBRANCH   1  27
TORSDOF 3
