REMARK  1 active torsions:
REMARK  status: ('A' for Active; 'I' for Inactive)
REMARK    1  A    between atoms: C18_20  and  N1_21 
ROOT
HETATM    1  C1  UNL     1      -1.105   2.998   0.392  1.00  0.00     0.051 C 
HETATM    2  C2  UNL     1       0.247   2.468   0.004  1.00  0.00    -0.028 C 
HETATM    3  C3  UNL     1       1.235   3.398  -0.342  1.00  0.00     0.010 C 
HETATM    4  C4  UNL     1       2.541   2.990  -0.588  1.00  0.00     0.008 C 
HETATM    5  C5  UNL     1       2.898   1.643  -0.467  1.00  0.00    -0.048 C 
HETATM    6  C6  UNL     1       4.338   1.249  -0.677  1.00  0.00     0.049 C 
HETATM    7  C7  UNL     1       1.912   0.689  -0.118  1.00  0.00     0.017 C 
HETATM    8  C8  UNL     1       0.557   1.083   0.021  1.00  0.00     0.090 C 
HETATM    9  O1  UNL     1      -0.438   0.119   0.303  1.00  0.00    -0.307 OA
HETATM   10  C9  UNL     1      -1.395  -0.483  -0.616  1.00  0.00     0.298 A 
HETATM   11  C10 UNL     1      -1.015  -1.927  -1.048  1.00  0.00     0.101 C 
HETATM   12  C11 UNL     1      -0.020  -2.003  -2.215  1.00  0.00     0.180 C 
HETATM   13  O2  UNL     1       1.201  -1.360  -1.887  1.00  0.00    -0.350 OA
HETATM   14  C12 UNL     1       1.950  -1.713  -0.764  1.00  0.00     0.080 A 
HETATM   15  C13 UNL     1       2.320  -3.045  -0.519  1.00  0.00     0.037 A 
HETATM   16  C14 UNL     1       3.046  -3.369   0.632  1.00  0.00     0.003 A 
HETATM   17  C15 UNL     1       3.400  -2.368   1.540  1.00  0.00     0.001 A 
HETATM   18  C16 UNL     1       3.031  -1.041   1.298  1.00  0.00     0.015 A 
HETATM   19  C17 UNL     1       2.305  -0.711   0.143  1.00  0.00     0.011 A 
HETATM   20  C18 UNL     1      -2.833  -0.443  -0.052  1.00  0.00     0.315 A 
HETATM   21  C21 UNL     1      -3.105   0.485  -1.234  1.00  0.00     0.314 A 
HETATM   22  N2  UNL     1      -1.749   0.357  -1.769  1.00  0.00     0.123 N 
HETATM   23  H26 UNL     1      -1.282   1.286  -1.747  1.00  0.00     0.320 HD
ENDROOT
BRANCH  20  24
HETATM   24  N1  UNL     1      -2.959   0.195   1.277  1.00  0.00     0.091 N 
HETATM   25  C19 UNL     1      -4.360   0.582   1.531  1.00  0.00     0.310 C 
HETATM   26  C20 UNL     1      -2.547  -0.762   2.321  1.00  0.00     0.310 C 
ENDBRANCH  20  24
TORSDOF 1
