REMARK  3 active torsions:
REMARK  status: ('A' for Active; 'I' for Inactive)
REMARK       I    between atoms: C1_2  and  N1_3 
REMARK    1  A    between atoms: C1_2  and  C14_16 
REMARK    2  A    between atoms: N1_3  and  C2_4 
REMARK    3  A    between atoms: C4_6  and  C5_7 
ROOT
HETATM    1  C14 UNL     1      -0.182  -0.877   0.902  1.00  0.00     0.032 A 
HETATM    2  C15 UNL     1       0.327  -1.834   0.017  1.00  0.00     0.018 A 
HETATM    3  C16 UNL     1       1.688  -1.865  -0.286  1.00  0.00     0.014 A 
HETATM    4  C17 UNL     1       2.596  -0.948   0.291  1.00  0.00    -0.019 A 
HETATM    5  C18 UNL     1       2.073   0.041   1.158  1.00  0.00    -0.046 A 
HETATM    6  C19 UNL     1       0.696   0.068   1.450  1.00  0.00     0.025 A 
HETATM    7  C20 UNL     1       2.922   1.165   1.652  1.00  0.00     0.044 C 
HETATM    8  C21 UNL     1       3.211   2.123   0.486  1.00  0.00     0.044 C 
HETATM    9  C22 UNL     1       4.685   2.181   0.257  1.00  0.00    -0.047 A 
HETATM   10  C23 UNL     1       5.387   3.306   0.730  1.00  0.00     0.008 A 
HETATM   11  C24 UNL     1       6.778   3.354   0.671  1.00  0.00     0.001 A 
HETATM   12  C25 UNL     1       7.487   2.272   0.164  1.00  0.00     0.001 A 
HETATM   13  C26 UNL     1       6.808   1.147  -0.302  1.00  0.00     0.013 A 
HETATM   14  C27 UNL     1       5.393   1.080  -0.288  1.00  0.00    -0.019 A 
HETATM   15  C28 UNL     1       4.741  -0.150  -0.867  1.00  0.00    -0.014 C 
HETATM   16  C29 UNL     1       5.362  -0.640  -2.036  1.00  0.00     0.013 C 
HETATM   17  C30 UNL     1       5.638  -2.000  -2.176  1.00  0.00     0.001 C 
HETATM   18  C31 UNL     1       5.285  -2.884  -1.161  1.00  0.00     0.001 C 
HETATM   19  C32 UNL     1       4.505  -2.436  -0.095  1.00  0.00     0.013 C 
HETATM   20  C33 UNL     1       4.057  -1.098  -0.045  1.00  0.00    -0.014 C 
ENDROOT
BRANCH   1  21
HETATM   21  C1  UNL     1      -1.631  -0.828   1.220  1.00  0.00     0.256 C 
HETATM   22  O1  UNL     1      -2.121   0.218   1.726  1.00  0.00    -0.267 OA
HETATM   23  N1  UNL     1      -2.472  -1.974   1.002  1.00  0.00    -0.323 N 
HETATM   24  H1  UNL     1      -2.034  -2.921   1.056  1.00  0.00     0.169 HD
BRANCH  23  25
HETATM   25  C2  UNL     1      -3.902  -1.900   0.866  1.00  0.00     0.035 A 
HETATM   26  C3  UNL     1      -4.526  -0.780   0.286  1.00  0.00     0.042 A 
HETATM   27  C4  UNL     1      -5.925  -0.731   0.141  1.00  0.00    -0.024 A 
HETATM   28  C11 UNL     1      -6.694  -1.825   0.576  1.00  0.00     0.012 A 
HETATM   29  C12 UNL     1      -6.076  -2.947   1.131  1.00  0.00     0.003 A 
HETATM   30  C13 UNL     1      -4.688  -2.988   1.270  1.00  0.00     0.029 A 
BRANCH  27  31
HETATM   31  C5  UNL     1      -6.580   0.455  -0.468  1.00  0.00    -0.026 A 
HETATM   32  C6  UNL     1      -7.777   0.965   0.069  1.00  0.00     0.012 A 
HETATM   33  C7  UNL     1      -8.391   2.082  -0.505  1.00  0.00     0.001 A 
HETATM   34  C8  UNL     1      -7.821   2.701  -1.619  1.00  0.00     0.000 A 
HETATM   35  C9  UNL     1      -6.634   2.204  -2.162  1.00  0.00     0.001 A 
HETATM   36  C10 UNL     1      -6.015   1.087  -1.592  1.00  0.00     0.012 A 
ENDBRANCH  27  31
ENDBRANCH  23  25
ENDBRANCH   1  21
TORSDOF 3
