REMARK  3 active torsions:
REMARK  status: ('A' for Active; 'I' for Inactive)
REMARK    1  A    between atoms: C4_4  and  C5_5 
REMARK    2  A    between atoms: C10_10  and  N1_11 
REMARK       I    between atoms: N1_11  and  C11_12 
REMARK    3  A    between atoms: C11_12  and  C12_14 
ROOT
HETATM    1  C12 UNL     1       0.327  -1.220  -0.736  1.00  0.00     0.032 A 
HETATM    2  C13 UNL     1       1.202  -1.854  -1.627  1.00  0.00     0.018 A 
HETATM    3  C14 UNL     1       2.565  -1.556  -1.615  1.00  0.00     0.014 A 
HETATM    4  C15 UNL     1       3.103  -0.627  -0.701  1.00  0.00    -0.017 A 
HETATM    5  C16 UNL     1       2.218   0.031   0.184  1.00  0.00    -0.044 A 
HETATM    6  C17 UNL     1       0.845  -0.277   0.165  1.00  0.00     0.025 A 
HETATM    7  C18 UNL     1       2.697   1.159   1.045  1.00  0.00     0.066 C 
HETATM    8  C19 UNL     1       3.204   2.267   0.128  1.00  0.00     0.180 C 
HETATM    9  O2  UNL     1       4.568   2.068  -0.225  1.00  0.00    -0.350 OA
HETATM   10  C20 UNL     1       5.224   0.854  -0.496  1.00  0.00     0.079 A 
HETATM   11  C21 UNL     1       6.622   0.936  -0.578  1.00  0.00     0.037 A 
HETATM   12  C22 UNL     1       7.403  -0.199  -0.773  1.00  0.00     0.003 A 
HETATM   13  C23 UNL     1       6.798  -1.445  -0.885  1.00  0.00     0.001 A 
HETATM   14  C24 UNL     1       5.410  -1.555  -0.829  1.00  0.00     0.015 A 
HETATM   15  C25 UNL     1       4.587  -0.416  -0.666  1.00  0.00     0.008 A 
ENDROOT
BRANCH   1  16
HETATM   16  C11 UNL     1      -1.120  -1.545  -0.753  1.00  0.00     0.256 C 
HETATM   17  N1  UNL     1      -2.084  -0.630  -0.206  1.00  0.00    -0.322 N 
HETATM   18  H12 UNL     1      -1.840   0.384  -0.231  1.00  0.00     0.169 HD
HETATM   19  O1  UNL     1      -1.511  -2.616  -1.293  1.00  0.00    -0.267 OA
BRANCH  17  20
HETATM   20  C10 UNL     1      -3.399  -1.025   0.236  1.00  0.00     0.041 A 
HETATM   21  C5  UNL     1      -4.491  -0.123   0.163  1.00  0.00    -0.027 A 
HETATM   22  C6  UNL     1      -5.779  -0.573   0.513  1.00  0.00     0.010 A 
HETATM   23  C7  UNL     1      -5.969  -1.859   1.018  1.00  0.00     0.001 A 
HETATM   24  C8  UNL     1      -4.884  -2.720   1.163  1.00  0.00     0.002 A 
HETATM   25  C9  UNL     1      -3.609  -2.310   0.774  1.00  0.00     0.030 A 
BRANCH  21  26
HETATM   26  C4  UNL     1      -4.308   1.273  -0.396  1.00  0.00     0.025 A 
HETATM   27  C2  UNL     1      -3.614   2.304   0.504  1.00  0.00    -0.009 A 
HETATM   28  C1  UNL     1      -3.237   1.918   1.941  1.00  0.00     0.010 C 
HETATM   29  C3  UNL     1      -5.112   2.398   0.261  1.00  0.00     0.014 A 
ENDBRANCH  21  26
ENDBRANCH  17  20
ENDBRANCH   1  16
TORSDOF 3
