REMARK  4 active torsions:
REMARK  status: ('A' for Active; 'I' for Inactive)
REMARK    1  A    between atoms: O1_2  and  C2_3 
REMARK       I    between atoms: N1_11  and  C10_12 
REMARK    2  A    between atoms: C10_12  and  C11_14 
REMARK    3  A    between atoms: C14_17  and  N2_18 
REMARK    4  A    between atoms: C17_21  and  C18_22 
ROOT
HETATM    1  C2  UNL     1      -5.962   0.651   0.248  1.00  0.00     0.075 A 
HETATM    2  C3  UNL     1      -6.479   1.849   0.774  1.00  0.00     0.037 A 
HETATM    3  C4  UNL     1      -5.626   2.821   1.293  1.00  0.00     0.003 A 
HETATM    4  C5  UNL     1      -4.250   2.611   1.305  1.00  0.00     0.008 A 
HETATM    5  C6  UNL     1      -3.703   1.430   0.778  1.00  0.00    -0.048 A 
HETATM    6  C7  UNL     1      -4.561   0.446   0.228  1.00  0.00    -0.017 A 
HETATM    7  C8  UNL     1      -3.981  -0.831  -0.343  1.00  0.00     0.062 C 
HETATM    8  C9  UNL     1      -3.371  -1.708   0.755  1.00  0.00     0.131 C 
HETATM    9  N1  UNL     1      -2.022  -1.250   1.125  1.00  0.00    -0.347 N 
HETATM   10  C10 UNL     1      -0.968  -2.227   1.240  1.00  0.00     0.253 C 
HETATM   11  O2  UNL     1      -1.228  -3.368   1.710  1.00  0.00    -0.267 OA
HETATM   12  C23 UNL     1      -1.840   0.062   1.771  1.00  0.00     0.130 C 
HETATM   13  C24 UNL     1      -2.209   1.221   0.837  1.00  0.00     0.059 C 
ENDROOT
BRANCH  10  14
HETATM   14  C11 UNL     1       0.423  -1.908   0.842  1.00  0.00     0.032 A 
HETATM   15  C12 UNL     1       1.504  -2.553   1.463  1.00  0.00     0.019 A 
HETATM   16  C13 UNL     1       2.818  -2.227   1.115  1.00  0.00     0.032 A 
HETATM   17  C14 UNL     1       3.077  -1.249   0.138  1.00  0.00     0.057 A 
HETATM   18  C21 UNL     1       1.993  -0.638  -0.513  1.00  0.00     0.032 A 
HETATM   19  C22 UNL     1       0.679  -0.965  -0.166  1.00  0.00     0.019 A 
BRANCH  17  20
HETATM   20  N2  UNL     1       4.428  -0.881  -0.207  1.00  0.00    -0.258 N 
HETATM   21  C15 UNL     1       5.560  -1.111   0.672  1.00  0.00     0.159 C 
HETATM   22  C16 UNL     1       6.546  -0.058   0.240  1.00  0.00     0.057 C 
HETATM   23  C17 UNL     1       5.692   0.836  -0.658  1.00  0.00     0.158 C 
HETATM   24  O3  UNL     1       4.675   0.021  -1.192  1.00  0.00    -0.272 OA
BRANCH  23  25
HETATM   25  C18 UNL     1       6.553   1.517  -1.741  1.00  0.00     0.017 A 
HETATM   26  C19 UNL     1       5.793   2.045  -2.949  1.00  0.00     0.007 A 
HETATM   27  C20 UNL     1       6.683   0.817  -3.086  1.00  0.00     0.007 A 
ENDBRANCH  23  25
ENDBRANCH  17  20
ENDBRANCH  10  14
BRANCH   1  28
HETATM   28  O1  UNL     1      -6.811  -0.352  -0.254  1.00  0.00    -0.355 OA
HETATM   29  C1  UNL     1      -8.232  -0.273  -0.283  1.00  0.00     0.210 C 
ENDBRANCH   1  28
TORSDOF 4
