REMARK  2 active torsions:
REMARK  status: ('A' for Active; 'I' for Inactive)
REMARK       I    between atoms: C1_2  and  N1_3 
REMARK    1  A    between atoms: C1_2  and  C28_33 
REMARK       I    between atoms: N1_3  and  C2_4 
REMARK    2  A    between atoms: C2_4  and  C3_6 
ROOT
HETATM    1  C3  UNL     1      -0.742  -0.890  -1.283  1.00  0.00     0.033 C 
HETATM    2  C4  UNL     1      -1.977  -0.638  -1.903  1.00  0.00     0.032 C 
HETATM    3  C5  UNL     1      -3.192  -0.683  -1.174  1.00  0.00     0.010 C 
HETATM    4  C6  UNL     1      -3.135  -1.081   0.197  1.00  0.00     0.090 C 
HETATM    5  C7  UNL     1      -1.890  -1.158   0.840  1.00  0.00     0.039 C 
HETATM    6  C8  UNL     1      -0.698  -1.070   0.106  1.00  0.00     0.020 C 
HETATM    7  O3  UNL     1      -4.221  -1.351   0.917  1.00  0.00    -0.274 OA
HETATM    8  C9  UNL     1      -5.294  -1.981   0.447  1.00  0.00     0.299 C 
HETATM    9  O4  UNL     1      -5.143  -2.915  -0.398  1.00  0.00    -0.259 OA
HETATM   10  C10 UNL     1      -6.582  -1.632   0.889  1.00  0.00     0.051 A 
HETATM   11  C11 UNL     1      -7.598  -2.607   0.823  1.00  0.00     0.018 A 
HETATM   12  C12 UNL     1      -8.886  -2.341   1.289  1.00  0.00     0.001 A 
HETATM   13  C13 UNL     1      -9.175  -1.103   1.865  1.00  0.00     0.001 A 
HETATM   14  C14 UNL     1      -8.189  -0.114   1.932  1.00  0.00     0.013 A 
HETATM   15  C15 UNL     1      -6.902  -0.324   1.397  1.00  0.00    -0.009 A 
HETATM   16  C16 UNL     1      -6.013   0.787   1.313  1.00  0.00    -0.014 A 
HETATM   17  C17 UNL     1      -5.853   1.606   2.451  1.00  0.00     0.013 A 
HETATM   18  C18 UNL     1      -4.868   2.587   2.494  1.00  0.00     0.001 A 
HETATM   19  C19 UNL     1      -4.032   2.798   1.396  1.00  0.00     0.001 A 
HETATM   20  C20 UNL     1      -4.205   2.053   0.234  1.00  0.00     0.013 A 
HETATM   21  C21 UNL     1      -5.207   1.067   0.159  1.00  0.00    -0.014 A 
HETATM   22  C22 UNL     1      -5.431   0.450  -1.091  1.00  0.00    -0.014 A 
HETATM   23  C23 UNL     1      -6.696   0.583  -1.681  1.00  0.00     0.013 A 
HETATM   24  C24 UNL     1      -6.940   0.115  -2.974  1.00  0.00     0.001 A 
HETATM   25  C25 UNL     1      -5.922  -0.495  -3.691  1.00  0.00     0.001 A 
HETATM   26  C26 UNL     1      -4.661  -0.673  -3.124  1.00  0.00     0.013 A 
HETATM   27  C27 UNL     1      -4.401  -0.262  -1.794  1.00  0.00    -0.012 A 
ENDROOT
BRANCH   1  28
HETATM   28  C2  UNL     1       0.507  -0.928  -2.083  1.00  0.00     0.258 C 
HETATM   29  N1  UNL     1       1.637  -1.688  -1.641  1.00  0.00    -0.289 N 
HETATM   30  C1  UNL     1       2.935  -1.501  -2.220  1.00  0.00     0.258 C 
HETATM   31  H1  UNL     1       1.491  -2.441  -0.926  1.00  0.00     0.172 HD
HETATM   32  O1  UNL     1       3.400  -2.413  -2.963  1.00  0.00    -0.267 OA
HETATM   33  O2  UNL     1       0.549  -0.328  -3.192  1.00  0.00    -0.267 OA
BRANCH  30  34
HETATM   34  C28 UNL     1       3.723  -0.258  -1.965  1.00  0.00     0.032 C 
HETATM   35  C29 UNL     1       3.192   0.730  -1.223  1.00  0.00     0.018 C 
HETATM   36  C30 UNL     1       3.805   1.176   0.052  1.00  0.00     0.014 C 
HETATM   37  C31 UNL     1       5.101   0.993   0.408  1.00  0.00    -0.014 C 
HETATM   38  C32 UNL     1       6.131   1.315  -0.520  1.00  0.00    -0.014 C 
HETATM   39  C47 UNL     1       5.441   0.534   1.722  1.00  0.00    -0.014 A 
HETATM   40  C33 UNL     1       5.824   1.923  -1.687  1.00  0.00     0.013 C 
HETATM   41  C36 UNL     1       7.492   1.119  -0.166  1.00  0.00    -0.014 A 
HETATM   42  C34 UNL     1       5.630   1.100  -2.898  1.00  0.00     0.002 C 
HETATM   43  C35 UNL     1       4.804   0.044  -2.954  1.00  0.00     0.017 C 
HETATM   44  C37 UNL     1       8.557   1.466  -1.064  1.00  0.00     0.013 A 
HETATM   45  C41 UNL     1       7.822   0.509   1.082  1.00  0.00    -0.014 A 
HETATM   46  C38 UNL     1       9.886   1.198  -0.749  1.00  0.00     0.001 A 
HETATM   47  C39 UNL     1      10.194   0.595   0.454  1.00  0.00     0.001 A 
HETATM   48  C40 UNL     1       9.194   0.271   1.366  1.00  0.00     0.013 A 
HETATM   49  C42 UNL     1       6.790   0.171   2.005  1.00  0.00    -0.014 A 
HETATM   50  C43 UNL     1       7.052  -0.542   3.193  1.00  0.00     0.013 A 
HETATM   51  C44 UNL     1       6.050  -0.834   4.104  1.00  0.00     0.001 A 
HETATM   52  C45 UNL     1       4.762  -0.387   3.895  1.00  0.00     0.001 A 
HETATM   53  C46 UNL     1       4.450   0.276   2.721  1.00  0.00     0.013 A 
ENDBRANCH  30  34
ENDBRANCH   1  28
TORSDOF 2
