REMARK  3 active torsions:
REMARK  status: ('A' for Active; 'I' for Inactive)
REMARK    1  A    between atoms: C3_4  and  C4_5 
REMARK    2  A    between atoms: C4_5  and  N2_6 
REMARK       I    between atoms: N2_6  and  C5_7 
REMARK       I    between atoms: C5_7  and  N3_9 
REMARK    3  A    between atoms: C9_14  and  C10_15 
ROOT
HETATM    1  N2  UNL     1       1.816  -0.116  -1.509  1.00  0.00    -0.325 N 
HETATM    2  C5  UNL     1       0.923  -0.413  -0.425  1.00  0.00     0.319 C 
HETATM    3  O1  UNL     1       1.202  -1.363   0.358  1.00  0.00    -0.247 OA
HETATM    4  N3  UNL     1      -0.273   0.369  -0.212  1.00  0.00    -0.331 N 
HETATM    5  C6  UNL     1      -0.341   1.732  -0.771  1.00  0.00     0.129 C 
HETATM    6  C7  UNL     1      -1.473   2.590  -0.177  1.00  0.00     0.046 C 
HETATM    7  C8  UNL     1      -2.890   2.031  -0.427  1.00  0.00     0.170 C 
HETATM    8  O2  UNL     1      -2.870   0.791  -1.112  1.00  0.00    -0.380 OA
HETATM    9  C9  UNL     1      -2.670  -0.311  -0.235  1.00  0.00     0.172 C 
HETATM   10  C16 UNL     1      -1.374  -0.178   0.604  1.00  0.00     0.164 C 
HETATM   11  H4  UNL     1       1.557   0.600  -2.220  1.00  0.00     0.165 HD
ENDROOT
BRANCH   1  12
HETATM   12  C4  UNL     1       3.182  -0.635  -1.538  1.00  0.00     0.113 A 
HETATM   13  C17 UNL     1       3.325  -2.120  -1.858  1.00  0.00     0.081 A 
HETATM   14  C18 UNL     1       3.677  -1.073  -2.911  1.00  0.00     0.207 A 
HETATM   15  F1  UNL     1       2.739  -0.998  -3.929  1.00  0.00    -0.246 F 
BRANCH  12  16
HETATM   16  C3  UNL     1       4.193   0.025  -0.649  1.00  0.00     0.073 A 
HETATM   17  N1  UNL     1       4.866  -0.658   0.319  1.00  0.00    -0.248 NA
HETATM   18  C2  UNL     1       5.700   0.147   1.011  1.00  0.00     0.071 A 
HETATM   19  C1  UNL     1       6.499  -0.311   2.183  1.00  0.00     0.078 C 
HETATM   20  S1  UNL     1       5.597   1.741   0.480  1.00  0.00    -0.085 SA
HETATM   21  C19 UNL     1       4.469   1.389  -0.717  1.00  0.00     0.081 A 
ENDBRANCH  12  16
ENDBRANCH   1  12
BRANCH   9  22
HETATM   22  C10 UNL     1      -3.939  -0.624   0.557  1.00  0.00    -0.028 A 
HETATM   23  C11 UNL     1      -5.174  -0.620  -0.119  1.00  0.00     0.010 A 
HETATM   24  C12 UNL     1      -6.362  -0.911   0.556  1.00  0.00     0.001 A 
HETATM   25  C13 UNL     1      -6.332  -1.221   1.916  1.00  0.00     0.000 A 
HETATM   26  C14 UNL     1      -5.114  -1.256   2.596  1.00  0.00     0.001 A 
HETATM   27  C15 UNL     1      -3.923  -0.972   1.922  1.00  0.00     0.010 A 
ENDBRANCH   9  22
TORSDOF 3
