REMARK  2 active torsions:
REMARK  status: ('A' for Active; 'I' for Inactive)
REMARK    1  A    between atoms: C1_2  and  O2_3 
REMARK    2  A    between atoms: C1_2  and  C2_4 
ROOT
HETATM    1  C2  UNL     1      -0.144  -1.921   0.302  1.00  0.00     0.088 C 
HETATM    2  C3  UNL     1       0.698  -1.800  -0.748  1.00  0.00     0.145 C 
HETATM    3  F1  UNL     1       0.824  -2.804  -1.654  1.00  0.00    -0.204 F 
HETATM    4  C4  UNL     1       1.576  -0.625  -0.930  1.00  0.00     0.015 A 
HETATM    5  C5  UNL     1       2.966  -0.810  -0.883  1.00  0.00     0.015 A 
HETATM    6  C6  UNL     1       3.831   0.266  -1.093  1.00  0.00     0.001 A 
HETATM    7  C7  UNL     1       3.316   1.533  -1.371  1.00  0.00     0.001 A 
HETATM    8  C8  UNL     1       1.935   1.728  -1.443  1.00  0.00     0.013 A 
HETATM    9  C9  UNL     1       1.053   0.657  -1.223  1.00  0.00    -0.012 A 
HETATM   10  C10 UNL     1      -0.405   0.890  -1.349  1.00  0.00    -0.014 A 
HETATM   11  C11 UNL     1      -0.928   1.285  -2.591  1.00  0.00     0.016 A 
HETATM   12  C12 UNL     1      -2.293   1.543  -2.734  1.00  0.00     0.043 A 
HETATM   13  C13 UNL     1      -3.148   1.421  -1.637  1.00  0.00     0.117 A 
HETATM   14  F2  UNL     1      -4.471   1.678  -1.778  1.00  0.00    -0.206 F 
HETATM   15  C14 UNL     1      -2.639   1.041  -0.393  1.00  0.00     0.055 A 
HETATM   16  C15 UNL     1      -1.270   0.767  -0.238  1.00  0.00    -0.011 A 
HETATM   17  C16 UNL     1      -0.756   0.401   1.100  1.00  0.00    -0.014 A 
HETATM   18  C17 UNL     1      -0.836   1.339   2.142  1.00  0.00     0.013 A 
HETATM   19  C18 UNL     1      -0.360   1.024   3.416  1.00  0.00     0.001 A 
HETATM   20  C19 UNL     1       0.194  -0.233   3.665  1.00  0.00     0.001 A 
HETATM   21  C20 UNL     1       0.270  -1.179   2.640  1.00  0.00     0.013 A 
HETATM   22  C21 UNL     1      -0.200  -0.874   1.352  1.00  0.00    -0.005 A 
ENDROOT
BRANCH   1  23
HETATM   23  C1  UNL     1      -1.004  -3.118   0.479  1.00  0.00     0.180 C 
HETATM   24  O1  UNL     1      -0.963  -4.080  -0.335  1.00  0.00    -0.646 OA
BRANCH  23  25
HETATM   25  O2  UNL     1      -1.884  -3.181   1.556  1.00  0.00    -0.773 OA
HETATM   26  H1  UNL     1      -2.482  -3.987   1.694  1.00  0.00     0.167 HD
ENDBRANCH  23  25
ENDBRANCH   1  23
TORSDOF 2
