REMARK  5 active torsions:
REMARK  status: ('A' for Active; 'I' for Inactive)
REMARK    1  A    between atoms: C6_7  and  C7_8 
REMARK       I    between atoms: C7_8  and  N1_10 
REMARK    2  A    between atoms: N1_10  and  C8_11 
REMARK    3  A    between atoms: N2_15  and  C12_16 
REMARK    4  A    between atoms: C14_18  and  C15_19 
REMARK    5  A    between atoms: C15_19  and  C16_20 
ROOT
HETATM    1  C8  UNL     1      -1.917  -0.394   1.081  1.00  0.00     0.120 C 
HETATM    2  C9  UNL     1      -1.784  -1.182  -0.239  1.00  0.00     0.032 C 
HETATM    3  C10 UNL     1      -1.455  -0.278  -1.437  1.00  0.00     0.023 C 
HETATM    4  C11 UNL     1       0.057  -0.153  -1.641  1.00  0.00     0.131 C 
HETATM    5  N2  UNL     1       0.784  -0.163  -0.363  1.00  0.00    -0.331 N 
HETATM    6  C23 UNL     1       0.412   0.746   0.687  1.00  0.00     0.044 A 
HETATM    7  C24 UNL     1       1.343   1.727   1.071  1.00  0.00     0.030 A 
HETATM    8  C25 UNL     1       1.074   2.595   2.126  1.00  0.00     0.002 A 
HETATM    9  C26 UNL     1      -0.123   2.486   2.826  1.00  0.00     0.001 A 
HETATM   10  C27 UNL     1      -1.061   1.519   2.463  1.00  0.00     0.011 A 
HETATM   11  C28 UNL     1      -0.833   0.650   1.374  1.00  0.00    -0.009 A 
ENDROOT
BRANCH   5  12
HETATM   12  C12 UNL     1       1.976  -0.956  -0.192  1.00  0.00     0.133 A 
HETATM   13  C13 UNL     1       2.876  -1.160  -1.248  1.00  0.00     0.078 A 
HETATM   14  C14 UNL     1       4.027  -1.922  -1.015  1.00  0.00     0.043 A 
HETATM   15  N3  UNL     1       4.259  -2.425   0.226  1.00  0.00    -0.246 NA
HETATM   16  C22 UNL     1       3.383  -2.214   1.242  1.00  0.00     0.235 A 
HETATM   17  N4  UNL     1       2.258  -1.484   1.031  1.00  0.00    -0.224 NA
BRANCH  14  18
HETATM   18  C15 UNL     1       5.043  -2.126  -2.099  1.00  0.00     0.098 C 
BRANCH  18  19
HETATM   19  C16 UNL     1       5.987  -0.956  -2.151  1.00  0.00    -0.052 A 
HETATM   20  C17 UNL     1       7.112  -0.916  -1.310  1.00  0.00     0.007 A 
HETATM   21  C18 UNL     1       7.968   0.189  -1.331  1.00  0.00     0.001 A 
HETATM   22  C19 UNL     1       7.702   1.264  -2.183  1.00  0.00     0.000 A 
HETATM   23  C20 UNL     1       6.578   1.238  -3.014  1.00  0.00     0.001 A 
HETATM   24  C21 UNL     1       5.720   0.134  -2.996  1.00  0.00     0.007 A 
ENDBRANCH  18  19
ENDBRANCH  14  18
ENDBRANCH   5  12
BRANCH   1  25
HETATM   25  N1  UNL     1      -3.238   0.246   1.102  1.00  0.00    -0.348 N 
HETATM   26  C7  UNL     1      -4.407  -0.404   1.620  1.00  0.00     0.255 C 
HETATM   27  O2  UNL     1      -4.288  -1.400   2.385  1.00  0.00    -0.268 OA
HETATM   28  H8  UNL     1      -3.345   1.178   0.642  1.00  0.00     0.163 HD
BRANCH  26  29
HETATM   29  C6  UNL     1      -5.756   0.098   1.291  1.00  0.00     0.069 A 
HETATM   30  C2  UNL     1      -6.189   0.656   0.098  1.00  0.00    -0.021 A 
HETATM   31  C1  UNL     1      -5.402   0.885  -1.155  1.00  0.00     0.051 C 
HETATM   32  C3  UNL     1      -7.527   0.954   0.272  1.00  0.00     0.149 A 
HETATM   33  O1  UNL     1      -7.905   0.593   1.477  1.00  0.00    -0.326 OA
HETATM   34  C4  UNL     1      -6.876   0.076   2.110  1.00  0.00     0.065 A 
HETATM   35  C5  UNL     1      -6.948  -0.449   3.508  1.00  0.00     0.077 C 
ENDBRANCH  26  29
ENDBRANCH   1  25
TORSDOF 5
