REMARK  4 active torsions:
REMARK  status: ('A' for Active; 'I' for Inactive)
REMARK       I    between atoms: C1_2  and  N1_3 
REMARK    1  A    between atoms: C1_2  and  C17_22 
REMARK    2  A    between atoms: N1_3  and  C2_4 
REMARK    3  A    between atoms: N2_6  and  C4_7 
REMARK    4  A    between atoms: C4_7  and  C5_8 
ROOT
HETATM    1  C2  UNL     1       0.390  -0.492   0.331  1.00  0.00     0.147 C 
HETATM    2  C3  UNL     1      -0.310   0.765   0.894  1.00  0.00     0.302 C 
HETATM    3  N2  UNL     1      -1.564   1.119   0.189  1.00  0.00     0.095 N 
HETATM    4  C9  UNL     1      -2.463  -0.031  -0.047  1.00  0.00     0.277 C 
HETATM    5  C10 UNL     1      -2.599  -0.927   1.189  1.00  0.00     0.069 C 
HETATM    6  C11 UNL     1      -1.532  -2.004   1.266  1.00  0.00    -0.048 A 
HETATM    7  C12 UNL     1      -1.932  -3.254   1.778  1.00  0.00     0.008 A 
HETATM    8  C13 UNL     1      -1.041  -4.322   1.845  1.00  0.00     0.001 A 
HETATM    9  C14 UNL     1       0.264  -4.167   1.397  1.00  0.00     0.001 A 
HETATM   10  C15 UNL     1       0.695  -2.933   0.912  1.00  0.00     0.010 A 
HETATM   11  C16 UNL     1      -0.165  -1.811   0.888  1.00  0.00    -0.027 A 
ENDROOT
BRANCH   1  12
HETATM   12  N1  UNL     1       1.824  -0.372   0.631  1.00  0.00    -0.345 N 
HETATM   13  C1  UNL     1       2.763   0.200  -0.292  1.00  0.00     0.272 C 
HETATM   14  O1  UNL     1       2.379   0.590  -1.429  1.00  0.00    -0.266 OA
HETATM   15  H1  UNL     1       2.138  -0.565   1.610  1.00  0.00     0.163 HD
BRANCH  13  16
HETATM   16  C17 UNL     1       4.180   0.341   0.079  1.00  0.00     0.145 A 
HETATM   17  C18 UNL     1       5.177   0.885  -0.710  1.00  0.00     0.058 A 
HETATM   18  C19 UNL     1       6.313   0.794   0.066  1.00  0.00     0.112 A 
HETATM   19  N3  UNL     1       5.988   0.226   1.241  1.00  0.00    -0.289 N 
HETATM   20  N4  UNL     1       4.695  -0.053   1.260  1.00  0.00    -0.170 NA
HETATM   21  H19 UNL     1       6.644   0.029   2.029  1.00  0.00     0.188 HD
ENDBRANCH  13  16
ENDBRANCH   1  12
BRANCH   3  22
HETATM   22  C4  UNL     1      -1.298   1.859  -1.066  1.00  0.00     0.313 C 
BRANCH  22  23
HETATM   23  C5  UNL     1      -2.523   2.613  -1.503  1.00  0.00    -0.005 A 
HETATM   24  C6  UNL     1      -3.284   2.256  -2.627  1.00  0.00     0.018 A 
HETATM   25  C7  UNL     1      -4.391   3.069  -2.830  1.00  0.00     0.051 A 
HETATM   26  S1  UNL     1      -4.427   4.227  -1.611  1.00  0.00    -0.094 SA
HETATM   27  C8  UNL     1      -3.041   3.708  -0.817  1.00  0.00     0.059 A 
HETATM   28 BR1  UNL     1      -2.338   4.507   0.770  1.00  0.00    -0.042 Br
ENDBRANCH  22  23
ENDBRANCH   3  22
TORSDOF 4
