REMARK  1 active torsions:
REMARK  status: ('A' for Active; 'I' for Inactive)
REMARK    1  A    between atoms: C1_2  and  C2_3 
REMARK       I    between atoms: C1_2  and  N2_13 
ROOT
HETATM    1  O1  UNL     1      -1.445  -1.958   1.926  1.00  0.00    -0.267 OA
HETATM    2  C1  UNL     1      -1.235  -1.189   0.951  1.00  0.00     0.254 C 
HETATM    3  N2  UNL     1       0.114  -0.915   0.564  1.00  0.00    -0.343 N 
HETATM    4  C10 UNL     1       0.855   0.021  -0.307  1.00  0.00     0.169 A 
HETATM    5  C11 UNL     1       2.229  -0.372   0.171  1.00  0.00     0.191 A 
HETATM    6  C12 UNL     1       3.099  -1.058  -0.918  1.00  0.00     0.071 C 
HETATM    7  C13 UNL     1       4.503  -1.468  -0.424  1.00  0.00     0.170 C 
HETATM    8  O2  UNL     1       5.130  -0.522   0.428  1.00  0.00    -0.389 OA
HETATM    9  C14 UNL     1       5.125   0.777  -0.136  1.00  0.00     0.197 C 
HETATM   10  C15 UNL     1       3.809   1.517   0.185  1.00  0.00     0.296 C 
HETATM   11  N3  UNL     1       2.910   0.669   0.981  1.00  0.00     0.098 N 
HETATM   12  C16 UNL     1       1.452  -1.326   1.035  1.00  0.00     0.169 A 
HETATM   13  H16 UNL     1       2.213   1.281   1.469  1.00  0.00     0.317 HD
ENDROOT
BRANCH   2  14
HETATM   14  C2  UNL     1      -2.380  -0.552   0.267  1.00  0.00     0.033 A 
HETATM   15  C3  UNL     1      -2.357  -0.322  -1.134  1.00  0.00     0.019 A 
HETATM   16  C4  UNL     1      -3.449   0.282  -1.782  1.00  0.00     0.031 A 
HETATM   17  C5  UNL     1      -4.552   0.636  -1.011  1.00  0.00     0.043 A 
HETATM   18  N1  UNL     1      -5.690   1.215  -1.431  1.00  0.00    -0.364 N 
HETATM   19  C8  UNL     1      -4.590   0.403   0.338  1.00  0.00     0.010 A 
HETATM   20  C6  UNL     1      -6.465   1.354  -0.330  1.00  0.00     0.108 A 
HETATM   21  H3  UNL     1      -5.932   1.499  -2.406  1.00  0.00     0.165 HD
HETATM   22  C7  UNL     1      -5.809   0.858   0.790  1.00  0.00     0.038 A 
HETATM   23 BR1  UNL     1      -6.476   0.821   2.578  1.00  0.00    -0.049 Br
HETATM   24  C9  UNL     1      -3.527  -0.194   1.012  1.00  0.00     0.032 A 
ENDBRANCH   2  14
TORSDOF 1
