REMARK  2 active torsions:
REMARK  status: ('A' for Active; 'I' for Inactive)
REMARK       I    between atoms: C1_2  and  N1_3 
REMARK    1  A    between atoms: C1_2  and  C23_28 
REMARK       I    between atoms: N1_3  and  C2_4 
REMARK    2  A    between atoms: C2_4  and  C3_6 
ROOT
HETATM    1  O1  UNL     1       2.384  -1.683   0.979  1.00  0.00    -0.267 OA
HETATM    2  C1  UNL     1       2.073  -0.876   0.062  1.00  0.00     0.260 C 
HETATM    3  N1  UNL     1       0.692  -0.692  -0.304  1.00  0.00    -0.289 N 
HETATM    4  C2  UNL     1      -0.388  -1.493   0.211  1.00  0.00     0.258 C 
HETATM    5  O2  UNL     1      -0.153  -2.404   1.051  1.00  0.00    -0.267 OA
HETATM    6  H1  UNL     1       0.479   0.029  -1.027  1.00  0.00     0.172 HD
ENDROOT
BRANCH   4   7
HETATM    7  C3  UNL     1      -1.779  -1.300  -0.267  1.00  0.00     0.033 A 
HETATM    8  C4  UNL     1      -2.662  -2.389  -0.287  1.00  0.00     0.018 A 
HETATM    9  C5  UNL     1      -3.960  -2.240  -0.773  1.00  0.00     0.014 A 
HETATM   10  C6  UNL     1      -4.402  -1.000  -1.247  1.00  0.00    -0.018 A 
HETATM   11  C7  UNL     1      -3.540   0.118  -1.203  1.00  0.00    -0.037 A 
HETATM   12  C22 UNL     1      -5.805  -0.864  -1.676  1.00  0.00    -0.014 A 
HETATM   13  C8  UNL     1      -2.231  -0.046  -0.714  1.00  0.00     0.025 A 
HETATM   14  C9  UNL     1      -3.952   1.458  -1.780  1.00  0.00     0.142 C 
HETATM   15  C10 UNL     1      -5.216   2.020  -1.182  1.00  0.00     0.226 C 
HETATM   16  O3  UNL     1      -6.068   2.557  -1.939  1.00  0.00    -0.273 OA
HETATM   17  N2  UNL     1      -5.404   2.094   0.236  1.00  0.00    -0.326 N 
HETATM   18  C11 UNL     1      -5.747   0.987   1.098  1.00  0.00     0.045 A 
HETATM   19  H7  UNL     1      -5.400   3.054   0.655  1.00  0.00     0.169 HD
HETATM   20  C12 UNL     1      -5.453   1.117   2.466  1.00  0.00     0.030 A 
HETATM   21  C16 UNL     1      -6.442  -0.175   0.654  1.00  0.00     0.002 A 
HETATM   22  C13 UNL     1      -5.811   0.119   3.375  1.00  0.00     0.002 A 
HETATM   23  C14 UNL     1      -6.494  -1.015   2.936  1.00  0.00     0.001 A 
HETATM   24  C15 UNL     1      -6.808  -1.162   1.587  1.00  0.00     0.014 A 
HETATM   25  C17 UNL     1      -6.787  -0.421  -0.763  1.00  0.00    -0.013 A 
HETATM   26  C18 UNL     1      -8.118  -0.288  -1.191  1.00  0.00     0.013 A 
HETATM   27  C19 UNL     1      -8.461  -0.560  -2.518  1.00  0.00     0.001 A 
HETATM   28  C20 UNL     1      -7.482  -0.979  -3.425  1.00  0.00     0.001 A 
HETATM   29  C21 UNL     1      -6.157  -1.134  -3.005  1.00  0.00     0.013 A 
ENDBRANCH   4   7
BRANCH   2  30
HETATM   30  C23 UNL     1       3.143  -0.138  -0.657  1.00  0.00     0.059 A 
HETATM   31  C24 UNL     1       3.025   0.025  -2.048  1.00  0.00     0.019 A 
HETATM   32  C25 UNL     1       4.025   0.662  -2.775  1.00  0.00     0.002 A 
HETATM   33  C26 UNL     1       5.150   1.161  -2.128  1.00  0.00     0.014 A 
HETATM   34  C27 UNL     1       5.298   1.032  -0.734  1.00  0.00     0.003 A 
HETATM   35  C28 UNL     1       4.298   0.358   0.004  1.00  0.00     0.059 A 
HETATM   36  C40 UNL     1       6.454   1.692  -0.063  1.00  0.00    -0.013 A 
HETATM   37  N3  UNL     1       4.480   0.152   1.410  1.00  0.00    -0.354 N 
HETATM   38  C29 UNL     1       5.586  -0.651   1.831  1.00  0.00     0.043 A 
HETATM   39  H19 UNL     1       3.648   0.213   2.040  1.00  0.00     0.166 HD
HETATM   40  C30 UNL     1       5.341  -1.841   2.532  1.00  0.00     0.030 A 
HETATM   41  C34 UNL     1       6.908  -0.293   1.492  1.00  0.00     0.002 A 
HETATM   42  C31 UNL     1       6.390  -2.708   2.840  1.00  0.00     0.002 A 
HETATM   43  C32 UNL     1       7.693  -2.391   2.458  1.00  0.00     0.001 A 
HETATM   44  C33 UNL     1       7.955  -1.189   1.797  1.00  0.00     0.014 A 
HETATM   45  C35 UNL     1       7.224   1.061   0.955  1.00  0.00    -0.013 A 
HETATM   46  C36 UNL     1       8.314   1.759   1.515  1.00  0.00     0.013 A 
HETATM   47  C37 UNL     1       8.644   3.043   1.086  1.00  0.00     0.001 A 
HETATM   48  C38 UNL     1       7.887   3.662   0.097  1.00  0.00     0.001 A 
HETATM   49  C39 UNL     1       6.800   2.998  -0.467  1.00  0.00     0.013 A 
ENDBRANCH   2  30
TORSDOF 2
