REMARK  4 active torsions:
REMARK  status: ('A' for Active; 'I' for Inactive)
REMARK    1  A    between atoms: C2_2  and  C3_3 
REMARK    2  A    between atoms: C2_2  and  C10_13 
REMARK       I    between atoms: C3_3  and  N1_5 
REMARK    3  A    between atoms: N1_5  and  C4_6 
REMARK    4  A    between atoms: C4_6  and  C5_7 
ROOT
HETATM    1  C1  UNL     1      -1.080   2.178   0.963  1.00  0.00     0.025 C 
HETATM    2  C2  UNL     1      -0.461   0.776   0.938  1.00  0.00     0.107 C 
ENDROOT
BRANCH   2   3
HETATM    3  C3  UNL     1      -1.424  -0.217   0.338  1.00  0.00     0.226 C 
HETATM    4  O1  UNL     1      -1.631  -0.220  -0.907  1.00  0.00    -0.273 OA
HETATM    5  N1  UNL     1      -2.140  -1.128   1.185  1.00  0.00    -0.355 N 
HETATM    6  H5  UNL     1      -1.953  -1.126   2.213  1.00  0.00     0.162 HD
BRANCH   5   7
HETATM    7  C4  UNL     1      -3.133  -2.066   0.666  1.00  0.00     0.181 C 
BRANCH   7   8
HETATM    8  C5  UNL     1      -4.346  -1.328   0.180  1.00  0.00     0.051 A 
HETATM    9  C6  UNL     1      -5.169  -0.636   1.080  1.00  0.00     0.029 A 
HETATM   10  C7  UNL     1      -6.279   0.060   0.597  1.00  0.00     0.003 A 
HETATM   11  C8  UNL     1      -6.555   0.062  -0.772  1.00  0.00     0.019 A 
HETATM   12  C9  UNL     1      -5.714  -0.638  -1.640  1.00  0.00     0.117 A 
HETATM   13  N2  UNL     1      -4.637  -1.308  -1.151  1.00  0.00    -0.264 NA
ENDBRANCH   7   8
ENDBRANCH   5   7
ENDBRANCH   2   3
BRANCH   2  14
HETATM   14  C10 UNL     1       0.875   0.747   0.214  1.00  0.00    -0.043 A 
HETATM   15  C11 UNL     1       1.024   1.294  -1.074  1.00  0.00     0.011 A 
HETATM   16  C12 UNL     1       2.251   1.220  -1.737  1.00  0.00     0.040 A 
HETATM   17  C13 UNL     1       3.344   0.589  -1.139  1.00  0.00     0.102 A 
HETATM   18  C14 UNL     1       3.226   0.093   0.177  1.00  0.00     0.102 A 
HETATM   19  O3  UNL     1       4.517   0.430  -1.889  1.00  0.00    -0.348 OA
HETATM   20  C15 UNL     1       1.986   0.137   0.824  1.00  0.00     0.047 A 
HETATM   21  O2  UNL     1       4.327  -0.416   0.879  1.00  0.00    -0.348 OA
HETATM   22  C16 UNL     1       5.656   0.062   0.680  1.00  0.00     0.178 C 
HETATM   23  C17 UNL     1       6.315  -0.567  -0.549  1.00  0.00     0.053 C 
HETATM   24  C18 UNL     1       5.373  -0.702  -1.748  1.00  0.00     0.178 C 
ENDBRANCH   2  14
TORSDOF 4
