REMARK  2 active torsions:
REMARK  status: ('A' for Active; 'I' for Inactive)
REMARK       I    between atoms: C1_2  and  N1_3 
REMARK    1  A    between atoms: C1_2  and  C12_18 
REMARK       I    between atoms: N1_3  and  C2_4 
REMARK    2  A    between atoms: C2_4  and  C3_6 
ROOT
HETATM    1  O1  UNL     1       1.375   1.903  -0.104  1.00  0.00    -0.267 OA
HETATM    2  C1  UNL     1       1.087   0.704   0.163  1.00  0.00     0.260 C 
HETATM    3  N1  UNL     1      -0.278   0.255   0.114  1.00  0.00    -0.288 N 
HETATM    4  C2  UNL     1      -1.385   1.102  -0.241  1.00  0.00     0.275 C 
HETATM    5  O2  UNL     1      -1.174   2.222  -0.783  1.00  0.00    -0.266 OA
HETATM    6  H1  UNL     1      -0.467  -0.757   0.290  1.00  0.00     0.172 HD
ENDROOT
BRANCH   2   7
HETATM    7  C12 UNL     1       2.166  -0.230   0.564  1.00  0.00     0.059 A 
HETATM    8  C13 UNL     1       1.943  -1.060   1.672  1.00  0.00     0.019 A 
HETATM    9  C14 UNL     1       2.944  -1.899   2.140  1.00  0.00     0.002 A 
HETATM   10  C15 UNL     1       4.184  -1.924   1.513  1.00  0.00     0.011 A 
HETATM   11  C16 UNL     1       4.452  -1.122   0.390  1.00  0.00    -0.003 A 
HETATM   12  C17 UNL     1       3.423  -0.256  -0.102  1.00  0.00     0.058 A 
HETATM   13  C20 UNL     1       5.849  -1.293  -0.194  1.00  0.00     0.311 C 
HETATM   14  N3  UNL     1       3.590   0.554  -1.283  1.00  0.00    -0.324 N 
HETATM   15  C18 UNL     1       4.724   1.392  -1.506  1.00  0.00     0.250 C 
HETATM   16  H10 UNL     1       2.757   0.729  -1.890  1.00  0.00     0.169 HD
HETATM   17  O4  UNL     1       4.574   2.519  -2.050  1.00  0.00    -0.271 OA
HETATM   18  C19 UNL     1       6.083   0.918  -1.152  1.00  0.00     0.372 C 
HETATM   19  N4  UNL     1       6.129  -0.522  -1.407  1.00  0.00     0.096 N 
HETATM   20  H13 UNL     1       7.101  -0.765  -1.710  1.00  0.00     0.316 HD
ENDBRANCH   2   7
BRANCH   4  21
HETATM   21  C3  UNL     1      -2.781   0.662  -0.005  1.00  0.00     0.104 A 
HETATM   22  C4  UNL     1      -3.822   1.190  -0.785  1.00  0.00     0.048 A 
HETATM   23  C5  UNL     1      -5.139   0.773  -0.563  1.00  0.00    -0.015 A 
HETATM   24  C6  UNL     1      -6.190   1.285  -1.340  1.00  0.00     0.054 A 
HETATM   25  C10 UNL     1      -5.411  -0.172   0.452  1.00  0.00     0.042 A 
HETATM   26  C7  UNL     1      -7.503   0.862  -1.113  1.00  0.00     0.117 A 
HETATM   27  F1  UNL     1      -8.514   1.359  -1.867  1.00  0.00    -0.206 F 
HETATM   28  C8  UNL     1      -7.775  -0.072  -0.111  1.00  0.00     0.043 A 
HETATM   29  C9  UNL     1      -6.738  -0.589   0.671  1.00  0.00     0.021 A 
HETATM   30  C11 UNL     1      -4.341  -0.667   1.221  1.00  0.00     0.257 A 
HETATM   31  O3  UNL     1      -4.548  -1.504   2.143  1.00  0.00    -0.267 OA
HETATM   32  N2  UNL     1      -3.069  -0.242   0.979  1.00  0.00    -0.318 N 
HETATM   33  H6  UNL     1      -2.305  -0.608   1.590  1.00  0.00     0.169 HD
ENDBRANCH   4  21
TORSDOF 2
