REMARK  7 active torsions:
REMARK  status: ('A' for Active; 'I' for Inactive)
REMARK    1  A    between atoms: N1_1  and  C1_2 
REMARK    2  A    between atoms: C1_2  and  C2_3 
REMARK    3  A    between atoms: C8_9  and  N2_10 
REMARK    4  A    between atoms: N2_10  and  C9_11 
REMARK    5  A    between atoms: N2_10  and  C22_24 
REMARK    6  A    between atoms: C9_11  and  C10_12 
REMARK    7  A    between atoms: C13_15  and  C14_16 
ROOT
HETATM    1  N2  UNL     1      -0.466  -2.076  -0.696  1.00  0.00    -0.370 N 
ENDROOT
BRANCH   1   2
HETATM    2  C8  UNL     1      -0.975  -1.078   0.209  1.00  0.00     0.031 A 
HETATM    3  C7  UNL     1      -0.171  -0.602   1.256  1.00  0.00     0.030 A 
HETATM    4  C6  UNL     1      -0.626   0.422   2.089  1.00  0.00     0.014 A 
HETATM    5  C5  UNL     1      -1.884   1.001   1.873  1.00  0.00    -0.026 A 
HETATM    6  C4  UNL     1      -2.341   2.042   2.694  1.00  0.00     0.013 A 
HETATM    7  C27 UNL     1      -2.691   0.544   0.804  1.00  0.00    -0.023 A 
HETATM    8  C3  UNL     1      -3.588   2.625   2.460  1.00  0.00     0.010 A 
HETATM    9  C2  UNL     1      -4.402   2.170   1.411  1.00  0.00    -0.030 A 
HETATM   10  C28 UNL     1      -3.944   1.135   0.578  1.00  0.00     0.021 A 
HETATM   11  C26 UNL     1      -2.225  -0.486  -0.027  1.00  0.00     0.041 A 
BRANCH   9  12
HETATM   12  C1  UNL     1      -5.731   2.829   1.141  1.00  0.00     0.305 C 
BRANCH  12  13
HETATM   13  N1  UNL     1      -5.598   3.881   0.133  1.00  0.00     0.082 N 
HETATM   14  H1  UNL     1      -5.266   3.450  -0.761  1.00  0.00     0.313 HD
HETATM   15  H2  UNL     1      -4.869   4.564   0.447  1.00  0.00     0.313 HD
ENDBRANCH  12  13
ENDBRANCH   9  12
ENDBRANCH   1   2
BRANCH   1  16
HETATM   16  C9  UNL     1       0.026  -1.634  -2.008  1.00  0.00     0.162 C 
BRANCH  16  17
HETATM   17  C10 UNL     1       1.201  -0.711  -1.836  1.00  0.00    -0.040 A 
HETATM   18  C11 UNL     1       2.447  -1.225  -1.450  1.00  0.00     0.009 A 
HETATM   19  C12 UNL     1       3.521  -0.364  -1.211  1.00  0.00     0.013 A 
HETATM   20  C13 UNL     1       3.370   1.028  -1.356  1.00  0.00    -0.026 A 
HETATM   21  C20 UNL     1       2.117   1.537  -1.744  1.00  0.00     0.013 A 
HETATM   22  C21 UNL     1       1.041   0.676  -1.973  1.00  0.00     0.009 A 
BRANCH  20  23
HETATM   23  C14 UNL     1       4.512   1.945  -1.096  1.00  0.00    -0.026 A 
HETATM   24  C15 UNL     1       4.305   3.190  -0.469  1.00  0.00     0.012 A 
HETATM   25  C16 UNL     1       5.381   4.049  -0.226  1.00  0.00     0.001 A 
HETATM   26  C17 UNL     1       6.675   3.678  -0.601  1.00  0.00     0.000 A 
HETATM   27  C18 UNL     1       6.895   2.447  -1.220  1.00  0.00     0.001 A 
HETATM   28  C19 UNL     1       5.823   1.584  -1.470  1.00  0.00     0.012 A 
ENDBRANCH  20  23
ENDBRANCH  16  17
ENDBRANCH   1  16
BRANCH   1  29
HETATM   29  C22 UNL     1      -0.520  -3.515  -0.357  1.00  0.00     0.114 C 
HETATM   30  C23 UNL     1      -1.996  -4.019  -0.333  1.00  0.00     0.057 C 
HETATM   31  C24 UNL     1      -2.470  -4.604   1.025  1.00  0.00     0.215 C 
HETATM   32  O1  UNL     1      -1.652  -5.625   1.588  1.00  0.00    -0.211 OA
HETATM   33  O2  UNL     1      -0.633  -5.852   0.771  1.00  0.00    -0.067 OA
HETATM   34  O3  UNL     1       0.396  -5.187   1.282  1.00  0.00    -0.209 OA
HETATM   35  C25 UNL     1       0.285  -3.812   0.941  1.00  0.00     0.238 C 
ENDBRANCH   1  29
TORSDOF 7
