REMARK  3 active torsions:
REMARK  status: ('A' for Active; 'I' for Inactive)
REMARK    1  A    between atoms: O1_2  and  C2_3 
REMARK    2  A    between atoms: C9_11  and  N1_12 
REMARK    3  A    between atoms: N1_12  and  C10_13 
ROOT
HETATM    1  C2  UNL     1      -5.421   1.697   0.581  1.00  0.00     0.070 C 
HETATM    2  C3  UNL     1      -6.033   0.447   0.621  1.00  0.00     0.038 C 
HETATM    3  C4  UNL     1      -5.270  -0.719   0.547  1.00  0.00     0.018 C 
HETATM    4  C5  UNL     1      -3.860  -0.675   0.407  1.00  0.00     0.008 C 
HETATM    5  C6  UNL     1      -3.248   0.596   0.529  1.00  0.00     0.082 C 
HETATM    6  C7  UNL     1      -4.021   1.764   0.539  1.00  0.00     0.074 C 
HETATM    7  O2  UNL     1      -1.888   0.745   0.742  1.00  0.00    -0.348 OA
HETATM    8  C8  UNL     1      -1.203  -0.109   1.636  1.00  0.00     0.205 C 
HETATM    9  C9  UNL     1      -0.681  -1.313   0.884  1.00  0.00     0.140 C 
HETATM   10  C23 UNL     1      -1.750  -2.269   0.373  1.00  0.00    -0.022 A 
HETATM   11  C24 UNL     1      -1.254  -3.555   0.057  1.00  0.00     0.010 A 
HETATM   12  C25 UNL     1      -2.034  -4.497  -0.600  1.00  0.00     0.001 A 
HETATM   13  C26 UNL     1      -3.319  -4.170  -0.998  1.00  0.00     0.001 A 
HETATM   14  C27 UNL     1      -3.844  -2.917  -0.697  1.00  0.00     0.013 A 
HETATM   15  C28 UNL     1      -3.117  -1.949   0.047  1.00  0.00    -0.015 A 
ENDROOT
BRANCH   9  16
HETATM   16  N1  UNL     1       0.157  -0.874  -0.242  1.00  0.00    -0.379 N 
HETATM   17  H10 UNL     1      -0.300  -0.806  -1.181  1.00  0.00     0.160 HD
BRANCH  16  18
HETATM   18  C10 UNL     1       1.533  -0.450  -0.141  1.00  0.00     0.029 A 
HETATM   19  C11 UNL     1       2.231  -0.425   1.099  1.00  0.00     0.030 A 
HETATM   20  C12 UNL     1       3.571  -0.006   1.164  1.00  0.00     0.015 A 
HETATM   21  C13 UNL     1       4.199   0.385  -0.014  1.00  0.00    -0.011 A 
HETATM   22  C14 UNL     1       3.531   0.365  -1.224  1.00  0.00     0.028 A 
HETATM   23  C22 UNL     1       5.563   0.861  -0.246  1.00  0.00    -0.011 A 
HETATM   24  C15 UNL     1       2.204  -0.046  -1.317  1.00  0.00     0.045 A 
HETATM   25  C16 UNL     1       4.447   0.827  -2.264  1.00  0.00     0.194 A 
HETATM   26  O3  UNL     1       4.196   0.944  -3.492  1.00  0.00    -0.287 OA
HETATM   27  C17 UNL     1       5.710   1.126  -1.598  1.00  0.00     0.026 A 
HETATM   28  C18 UNL     1       6.914   1.596  -2.121  1.00  0.00     0.016 A 
HETATM   29  C19 UNL     1       7.987   1.797  -1.236  1.00  0.00     0.001 A 
HETATM   30  C20 UNL     1       7.839   1.528   0.142  1.00  0.00     0.001 A 
HETATM   31  C21 UNL     1       6.616   1.054   0.649  1.00  0.00     0.013 A 
ENDBRANCH  16  18
ENDBRANCH   9  16
BRANCH   1  32
HETATM   32  O1  UNL     1      -6.232   2.842   0.614  1.00  0.00    -0.356 OA
HETATM   33  C1  UNL     1      -5.740   4.177   0.584  1.00  0.00     0.210 C 
ENDBRANCH   1  32
TORSDOF 3
