REMARK  3 active torsions:
REMARK  status: ('A' for Active; 'I' for Inactive)
REMARK    1  A    between atoms: C1_2  and  C2_3 
REMARK       I    between atoms: C1_2  and  N2_15 
REMARK    2  A    between atoms: C2_3  and  C3_4 
REMARK    3  A    between atoms: C3_4  and  C4_5 
ROOT
HETATM    1  O1  UNL     1      -1.530  -1.694  -1.229  1.00  0.00    -0.273 OA
HETATM    2  C1  UNL     1      -1.300  -0.756  -0.416  1.00  0.00     0.224 C 
HETATM    3  N2  UNL     1      -2.389   0.093   0.018  1.00  0.00    -0.315 N 
HETATM    4  C13 UNL     1      -2.095   1.350   0.740  1.00  0.00     0.142 C 
HETATM    5  C14 UNL     1      -3.344   2.128   1.191  1.00  0.00     0.094 C 
HETATM    6  S1  UNL     1      -4.095   3.145  -0.142  1.00  0.00    -0.163 SA
HETATM    7  C15 UNL     1      -4.073   1.921  -1.500  1.00  0.00     0.114 C 
HETATM    8  C16 UNL     1      -4.580   0.582  -1.044  1.00  0.00    -0.019 A 
HETATM    9  C17 UNL     1      -5.902   0.199  -1.310  1.00  0.00     0.029 A 
HETATM   10  C18 UNL     1      -6.359  -1.046  -0.876  1.00  0.00     0.117 A 
HETATM   11  N3  UNL     1      -5.530  -1.876  -0.190  1.00  0.00    -0.271 NA
HETATM   12  C19 UNL     1      -4.247  -1.528   0.094  1.00  0.00     0.146 A 
HETATM   13  C20 UNL     1      -3.741  -0.288  -0.321  1.00  0.00     0.061 A 
ENDROOT
BRANCH   2  14
HETATM   14  C2  UNL     1       0.112  -0.525   0.074  1.00  0.00     0.108 C 
BRANCH  14  15
HETATM   15  C3  UNL     1       1.111  -1.563  -0.455  1.00  0.00     0.049 C 
BRANCH  15  16
HETATM   16  C4  UNL     1       2.492  -1.285   0.075  1.00  0.00    -0.039 A 
HETATM   17  C5  UNL     1       2.916  -1.847   1.289  1.00  0.00     0.124 A 
HETATM   18  N1  UNL     1       4.151  -1.565   1.782  1.00  0.00    -0.260 NA
HETATM   19  C6  UNL     1       5.009  -0.734   1.133  1.00  0.00     0.066 A 
HETATM   20  C7  UNL     1       6.274  -0.468   1.672  1.00  0.00     0.032 A 
HETATM   21  C11 UNL     1       4.623  -0.133  -0.085  1.00  0.00    -0.007 A 
HETATM   22  C8  UNL     1       7.152   0.392   1.005  1.00  0.00     0.002 A 
HETATM   23  C9  UNL     1       6.770   0.989  -0.201  1.00  0.00     0.001 A 
HETATM   24  C10 UNL     1       5.509   0.730  -0.748  1.00  0.00     0.014 A 
HETATM   25  C12 UNL     1       3.353  -0.412  -0.606  1.00  0.00     0.022 A 
ENDBRANCH  15  16
ENDBRANCH  14  15
ENDBRANCH   2  14
TORSDOF 3
