REMARK  2 active torsions:
REMARK  status: ('A' for Active; 'I' for Inactive)
REMARK    1  A    between atoms: C4_4  and  C5_5 
REMARK    2  A    between atoms: C20_21  and  C21_22 
ROOT
HETATM    1  C1  UNL     1       3.113  -6.110   0.448  1.00  0.00     0.048 C 
HETATM    2  C2  UNL     1       2.952  -4.637   0.209  1.00  0.00    -0.058 A 
HETATM    3  C3  UNL     1       1.677  -4.056   0.225  1.00  0.00     0.020 A 
HETATM    4  C4  UNL     1       1.518  -2.673   0.047  1.00  0.00    -0.011 A 
HETATM    5  C20 UNL     1       2.661  -1.859  -0.164  1.00  0.00     0.024 A 
HETATM    6  C31 UNL     1       3.938  -2.447  -0.148  1.00  0.00     0.128 A 
HETATM    7  F1  UNL     1       5.048  -1.690  -0.345  1.00  0.00    -0.205 F 
HETATM    8  C32 UNL     1       4.080  -3.823   0.044  1.00  0.00     0.049 A 
ENDROOT
BRANCH   4   9
HETATM    9  C5  UNL     1       0.156  -2.091   0.110  1.00  0.00    -0.024 A 
HETATM   10  C6  UNL     1      -0.845  -2.540  -0.762  1.00  0.00     0.013 A 
HETATM   11  C7  UNL     1      -2.089  -1.906  -0.792  1.00  0.00     0.014 A 
HETATM   12  C8  UNL     1      -2.354  -0.811   0.048  1.00  0.00    -0.017 A 
HETATM   13  C9  UNL     1      -1.367  -0.392   0.969  1.00  0.00    -0.045 A 
HETATM   14  C19 UNL     1      -3.638  -0.073  -0.078  1.00  0.00     0.001 A 
HETATM   15  C10 UNL     1      -0.124  -1.039   0.995  1.00  0.00     0.020 A 
HETATM   16  C11 UNL     1      -1.617   0.782   1.882  1.00  0.00     0.059 C 
HETATM   17  C12 UNL     1      -1.568   2.100   1.100  1.00  0.00     0.127 C 
HETATM   18  N1  UNL     1      -2.422   2.091  -0.099  1.00  0.00    -0.384 N 
HETATM   19  C13 UNL     1      -2.189   3.122  -1.111  1.00  0.00     0.149 C 
HETATM   20  C14 UNL     1      -3.655   1.341  -0.130  1.00  0.00     0.041 A 
HETATM   21  C15 UNL     1      -4.882   2.013  -0.260  1.00  0.00     0.030 A 
HETATM   22  C16 UNL     1      -6.078   1.296  -0.331  1.00  0.00     0.002 A 
HETATM   23  C17 UNL     1      -6.062  -0.098  -0.279  1.00  0.00     0.001 A 
HETATM   24  C18 UNL     1      -4.850  -0.781  -0.155  1.00  0.00     0.014 A 
ENDBRANCH   4   9
BRANCH   5  25
HETATM   25  C21 UNL     1       2.532  -0.406  -0.425  1.00  0.00    -0.021 A 
HETATM   26  C22 UNL     1       1.791   0.051  -1.526  1.00  0.00     0.013 A 
HETATM   27  C23 UNL     1       1.585   1.418  -1.725  1.00  0.00     0.013 A 
HETATM   28  C24 UNL     1       2.121   2.349  -0.825  1.00  0.00    -0.026 A 
HETATM   29  C25 UNL     1       1.906   3.724  -1.005  1.00  0.00     0.012 A 
HETATM   30  C29 UNL     1       2.882   1.898   0.281  1.00  0.00    -0.025 A 
HETATM   31  C26 UNL     1       2.435   4.642  -0.094  1.00  0.00     0.001 A 
HETATM   32  C27 UNL     1       3.185   4.197   0.998  1.00  0.00     0.001 A 
HETATM   33  C28 UNL     1       3.409   2.830   1.188  1.00  0.00     0.012 A 
HETATM   34  C30 UNL     1       3.088   0.522   0.469  1.00  0.00     0.024 A 
ENDBRANCH   5  25
TORSDOF 2
