REMARK  3 active torsions:
REMARK  status: ('A' for Active; 'I' for Inactive)
REMARK    1  A    between atoms: N1_1  and  C1_2 
REMARK    2  A    between atoms: C1_2  and  C2_3 
REMARK    3  A    between atoms: C3_6  and  C4_7 
ROOT
HETATM    1  C1  UNL     1       1.955  -0.470  -0.926  1.00  0.00     0.247 C 
HETATM    2  C13 UNL     1       2.368  -1.782  -0.194  1.00  0.00     0.057 C 
HETATM    3  C14 UNL     1       2.791  -1.574   1.269  1.00  0.00     0.023 C 
HETATM    4  C15 UNL     1       4.292  -1.308   1.387  1.00  0.00     0.120 C 
HETATM    5  N4  UNL     1       4.805  -0.576   0.233  1.00  0.00    -0.389 N 
HETATM    6  C16 UNL     1       4.222   0.659  -0.195  1.00  0.00     0.037 A 
HETATM    7  C17 UNL     1       5.027   1.808  -0.142  1.00  0.00     0.030 A 
HETATM    8  C18 UNL     1       4.535   3.044  -0.550  1.00  0.00     0.002 A 
HETATM    9  C19 UNL     1       3.237   3.148  -1.037  1.00  0.00     0.001 A 
HETATM   10  C20 UNL     1       2.428   2.015  -1.119  1.00  0.00     0.012 A 
HETATM   11  C21 UNL     1       2.884   0.745  -0.686  1.00  0.00     0.014 A 
HETATM   12  H16 UNL     1       5.787  -0.781  -0.061  1.00  0.00     0.159 HD
ENDROOT
BRANCH   1  13
HETATM   13  N1  UNL     1       1.961  -0.747  -2.373  1.00  0.00     0.100 N 
HETATM   14  H1  UNL     1       1.376  -1.590  -2.581  1.00  0.00     0.314 HD
HETATM   15  H2  UNL     1       1.533   0.053  -2.894  1.00  0.00     0.314 HD
ENDBRANCH   1  13
BRANCH   1  16
HETATM   16  C2  UNL     1       0.537  -0.136  -0.475  1.00  0.00     0.199 A 
HETATM   17  N2  UNL     1       0.247   0.587   0.626  1.00  0.00    -0.107 NA
HETATM   18  O1  UNL     1      -1.049   0.590   0.695  1.00  0.00    -0.191 OA
HETATM   19  C3  UNL     1      -1.549  -0.108  -0.295  1.00  0.00     0.207 A 
HETATM   20  N3  UNL     1      -0.575  -0.604  -1.083  1.00  0.00    -0.201 NA
BRANCH  19  21
HETATM   21  C4  UNL     1      -2.995  -0.302  -0.549  1.00  0.00     0.032 A 
HETATM   22  C5  UNL     1      -3.416  -0.527  -1.873  1.00  0.00     0.017 A 
HETATM   23  C6  UNL     1      -4.771  -0.655  -2.181  1.00  0.00     0.004 A 
HETATM   24  C7  UNL     1      -5.731  -0.553  -1.176  1.00  0.00     0.037 A 
HETATM   25  C8  UNL     1      -5.337  -0.337   0.146  1.00  0.00     0.080 A 
HETATM   26  C9  UNL     1      -3.972  -0.236   0.479  1.00  0.00     0.012 A 
HETATM   27  O2  UNL     1      -6.305  -0.247   1.151  1.00  0.00    -0.347 OA
HETATM   28  C10 UNL     1      -3.633  -0.168   1.922  1.00  0.00     0.013 C 
HETATM   29  C11 UNL     1      -4.585   0.010   2.842  1.00  0.00     0.000 C 
HETATM   30  C12 UNL     1      -6.009   0.286   2.444  1.00  0.00     0.203 C 
ENDBRANCH  19  21
ENDBRANCH   1  16
TORSDOF 3
