REMARK  2 active torsions:
REMARK  status: ('A' for Active; 'I' for Inactive)
REMARK    1  A    between atoms: C1_2  and  C2_3 
REMARK       I    between atoms: C1_2  and  N2_22 
REMARK       I    between atoms: N2_22  and  C20_23 
REMARK    2  A    between atoms: C20_23  and  C21_25 
ROOT
HETATM    1  O1  UNL     1       1.904   2.191   2.518  1.00  0.00    -0.267 OA
HETATM    2  C1  UNL     1       1.681   1.224   1.742  1.00  0.00     0.258 C 
HETATM    3  N2  UNL     1       0.352   0.686   1.620  1.00  0.00    -0.289 N 
HETATM    4  C20 UNL     1      -0.832   1.388   2.048  1.00  0.00     0.258 C 
HETATM    5  O2  UNL     1      -0.729   2.530   2.577  1.00  0.00    -0.267 OA
HETATM    6  H13 UNL     1       0.262  -0.298   1.282  1.00  0.00     0.172 HD
ENDROOT
BRANCH   4   7
HETATM    7  C21 UNL     1      -2.182   0.789   1.894  1.00  0.00     0.034 A 
HETATM    8  C22 UNL     1      -3.224   1.201   2.736  1.00  0.00     0.018 A 
HETATM    9  C23 UNL     1      -4.495   0.645   2.611  1.00  0.00     0.015 A 
HETATM   10  C24 UNL     1      -4.763  -0.334   1.644  1.00  0.00     0.001 A 
HETATM   11  C25 UNL     1      -3.723  -0.760   0.771  1.00  0.00     0.040 A 
HETATM   12  C40 UNL     1      -6.142  -0.851   1.582  1.00  0.00    -0.013 A 
HETATM   13  C26 UNL     1      -2.448  -0.180   0.911  1.00  0.00     0.047 A 
HETATM   14  N3  UNL     1      -3.862  -1.819  -0.207  1.00  0.00    -0.382 N 
HETATM   15  C27 UNL     1      -5.078  -2.276  -0.883  1.00  0.00     0.203 C 
HETATM   16  H17 UNL     1      -2.978  -2.257  -0.555  1.00  0.00     0.160 HD
HETATM   17  C28 UNL     1      -5.544  -1.282  -1.916  1.00  0.00     0.177 C 
HETATM   18  O3  UNL     1      -5.622  -1.670  -3.114  1.00  0.00    -0.290 OA
HETATM   19  C29 UNL     1      -5.872   0.138  -1.610  1.00  0.00     0.022 A 
HETATM   20  C30 UNL     1      -5.498   1.119  -2.549  1.00  0.00     0.016 A 
HETATM   21  C34 UNL     1      -6.592   0.541  -0.455  1.00  0.00    -0.011 A 
HETATM   22  C31 UNL     1      -5.817   2.464  -2.345  1.00  0.00     0.001 A 
HETATM   23  C32 UNL     1      -6.519   2.853  -1.206  1.00  0.00     0.001 A 
HETATM   24  C33 UNL     1      -6.907   1.897  -0.266  1.00  0.00     0.013 A 
HETATM   25  C35 UNL     1      -7.031  -0.420   0.574  1.00  0.00    -0.014 A 
HETATM   26  C36 UNL     1      -8.351  -0.894   0.560  1.00  0.00     0.013 A 
HETATM   27  C37 UNL     1      -8.785  -1.791   1.540  1.00  0.00     0.001 A 
HETATM   28  C38 UNL     1      -7.908  -2.213   2.543  1.00  0.00     0.001 A 
HETATM   29  C39 UNL     1      -6.593  -1.741   2.570  1.00  0.00     0.013 A 
ENDBRANCH   4   7
BRANCH   2  30
HETATM   30  C2  UNL     1       2.804   0.640   0.973  1.00  0.00     0.034 A 
HETATM   31  C3  UNL     1       2.577   0.008  -0.259  1.00  0.00     0.018 A 
HETATM   32  C4  UNL     1       3.646  -0.497  -1.002  1.00  0.00     0.015 A 
HETATM   33  C5  UNL     1       4.970  -0.382  -0.536  1.00  0.00     0.002 A 
HETATM   34  C6  UNL     1       5.201   0.269   0.693  1.00  0.00     0.044 A 
HETATM   35  C19 UNL     1       6.080  -1.029  -1.293  1.00  0.00    -0.013 A 
HETATM   36  C7  UNL     1       4.121   0.766   1.440  1.00  0.00     0.047 A 
HETATM   37  N1  UNL     1       6.530   0.506   1.160  1.00  0.00    -0.355 N 
HETATM   38  C8  UNL     1       7.384   1.315   0.351  1.00  0.00     0.043 A 
HETATM   39  H4  UNL     1       6.678   0.535   2.196  1.00  0.00     0.166 HD
HETATM   40  C9  UNL     1       7.874   2.523   0.875  1.00  0.00     0.030 A 
HETATM   41  C13 UNL     1       7.678   0.954  -0.983  1.00  0.00     0.002 A 
HETATM   42  C10 UNL     1       8.615   3.392   0.074  1.00  0.00     0.002 A 
HETATM   43  C11 UNL     1       8.873   3.065  -1.257  1.00  0.00     0.001 A 
HETATM   44  C12 UNL     1       8.414   1.854  -1.782  1.00  0.00     0.014 A 
HETATM   45  C14 UNL     1       7.339  -0.401  -1.511  1.00  0.00    -0.013 A 
HETATM   46  C15 UNL     1       8.328  -1.096  -2.241  1.00  0.00     0.013 A 
HETATM   47  C16 UNL     1       8.084  -2.369  -2.755  1.00  0.00     0.001 A 
HETATM   48  C17 UNL     1       6.856  -2.981  -2.541  1.00  0.00     0.001 A 
HETATM   49  C18 UNL     1       5.865  -2.324  -1.813  1.00  0.00     0.013 A 
ENDBRANCH   2  30
TORSDOF 2
