REMARK  2 active torsions:
REMARK  status: ('A' for Active; 'I' for Inactive)
REMARK    1  A    between atoms: C9_9  and  N1_10 
REMARK       I    between atoms: N1_10  and  C10_11 
REMARK    2  A    between atoms: C10_11  and  C11_13 
ROOT
HETATM    1  N1  UNL     1      -1.647  -1.186   0.001  1.00  0.00    -0.344 N 
HETATM    2  C10 UNL     1      -0.499  -1.477   0.814  1.00  0.00     0.252 C 
HETATM    3  O1  UNL     1      -0.633  -2.165   1.863  1.00  0.00    -0.268 OA
HETATM    4  H10 UNL     1      -1.509  -0.794  -0.958  1.00  0.00     0.163 HD
ENDROOT
BRANCH   2   5
HETATM    5  C11 UNL     1       0.848  -0.997   0.427  1.00  0.00     0.032 A 
HETATM    6  C12 UNL     1       1.004   0.173  -0.333  1.00  0.00     0.018 A 
HETATM    7  C13 UNL     1       2.277   0.626  -0.681  1.00  0.00     0.014 A 
HETATM    8  C14 UNL     1       3.427  -0.075  -0.279  1.00  0.00    -0.017 A 
HETATM    9  C15 UNL     1       3.278  -1.252   0.489  1.00  0.00    -0.037 A 
HETATM   10  C25 UNL     1       4.770   0.427  -0.684  1.00  0.00     0.002 A 
HETATM   11  C16 UNL     1       1.992  -1.694   0.846  1.00  0.00     0.025 A 
HETATM   12  C17 UNL     1       4.484  -2.011   0.968  1.00  0.00     0.142 C 
HETATM   13  C18 UNL     1       5.209  -1.173   1.972  1.00  0.00     0.228 C 
HETATM   14  O2  UNL     1       5.366  -1.617   3.143  1.00  0.00    -0.273 OA
HETATM   15  N2  UNL     1       5.698   0.138   1.622  1.00  0.00    -0.321 N 
HETATM   16  C19 UNL     1       6.232   1.007   2.675  1.00  0.00     0.159 C 
HETATM   17  C20 UNL     1       5.848   0.522   0.237  1.00  0.00     0.047 A 
HETATM   18  C21 UNL     1       7.088   1.019  -0.207  1.00  0.00     0.030 A 
HETATM   19  C22 UNL     1       7.266   1.412  -1.533  1.00  0.00     0.002 A 
HETATM   20  C23 UNL     1       6.211   1.316  -2.437  1.00  0.00     0.001 A 
HETATM   21  C24 UNL     1       4.973   0.827  -2.018  1.00  0.00     0.014 A 
ENDBRANCH   2   5
BRANCH   1  22
HETATM   22  C9  UNL     1      -3.016  -1.314   0.503  1.00  0.00     0.153 A 
HETATM   23  C7  UNL     1      -3.643   0.039   0.660  1.00  0.00    -0.019 A 
HETATM   24  C6  UNL     1      -4.740   0.210  -0.173  1.00  0.00    -0.011 A 
HETATM   25  C8  UNL     1      -3.221   1.049   1.523  1.00  0.00     0.017 A 
HETATM   26  C4  UNL     1      -5.468   1.418  -0.170  1.00  0.00    -0.050 A 
HETATM   27  C31 UNL     1      -4.906  -1.032  -0.933  1.00  0.00    -0.016 A 
HETATM   28  C3  UNL     1      -5.042   2.443   0.701  1.00  0.00     0.014 A 
HETATM   29  C5  UNL     1      -6.664   1.640  -1.048  1.00  0.00     0.049 C 
HETATM   30  C2  UNL     1      -3.916   2.270   1.533  1.00  0.00    -0.061 A 
HETATM   31  C1  UNL     1      -3.503   3.362   2.476  1.00  0.00     0.048 C 
HETATM   32  C26 UNL     1      -3.910  -1.913  -0.539  1.00  0.00    -0.020 A 
HETATM   33  C30 UNL     1      -5.849  -1.405  -1.900  1.00  0.00     0.013 A 
HETATM   34  C27 UNL     1      -3.817  -3.193  -1.088  1.00  0.00     0.010 A 
HETATM   35  C28 UNL     1      -4.753  -3.579  -2.057  1.00  0.00     0.001 A 
HETATM   36  C29 UNL     1      -5.764  -2.689  -2.461  1.00  0.00     0.001 A 
ENDBRANCH   1  22
TORSDOF 2
