REMARK  4 active torsions:
REMARK  status: ('A' for Active; 'I' for Inactive)
REMARK    1  A    between atoms: C2_2  and  S1_3 
REMARK    2  A    between atoms: S1_3  and  C3_6 
REMARK    3  A    between atoms: C7_11  and  C8_12 
REMARK       I    between atoms: C8_12  and  N1_14 
REMARK    4  A    between atoms: C13_20  and  O5_21 
ROOT
HETATM    1  C8  UNL     1      -0.643  -0.628  -1.162  1.00  0.00     0.256 C 
HETATM    2  O3  UNL     1      -0.100  -1.355  -2.038  1.00  0.00    -0.267 OA
HETATM    3  N1  UNL     1      -0.209   0.740  -0.984  1.00  0.00    -0.342 N 
HETATM    4  C9  UNL     1      -0.821   1.619   0.020  1.00  0.00     0.153 C 
HETATM    5  C10 UNL     1      -0.070   1.522   1.347  1.00  0.00     0.195 C 
HETATM    6  O4  UNL     1       1.284   1.956   1.225  1.00  0.00    -0.349 OA
HETATM    7  C11 UNL     1       2.288   1.181   0.630  1.00  0.00     0.079 A 
HETATM    8  C12 UNL     1       3.411   0.846   1.395  1.00  0.00     0.074 A 
HETATM    9  C13 UNL     1       4.436   0.057   0.860  1.00  0.00     0.070 A 
HETATM   10  C15 UNL     1       4.337  -0.387  -0.470  1.00  0.00     0.037 A 
HETATM   11  C16 UNL     1       3.232  -0.036  -1.249  1.00  0.00     0.014 A 
HETATM   12  C17 UNL     1       2.203   0.753  -0.712  1.00  0.00    -0.007 A 
HETATM   13  C18 UNL     1       1.053   1.178  -1.584  1.00  0.00     0.167 C 
ENDROOT
BRANCH   1  14
HETATM   14  C7  UNL     1      -1.681  -1.228  -0.310  1.00  0.00     0.066 A 
HETATM   15  C3  UNL     1      -3.068  -1.110  -0.545  1.00  0.00     0.082 A 
HETATM   16  C4  UNL     1      -3.843  -1.797   0.384  1.00  0.00     0.074 A 
HETATM   17  S2  UNL     1      -2.820  -2.543   1.486  1.00  0.00    -0.104 SA
HETATM   18  C5  UNL     1      -1.381  -2.014   0.804  1.00  0.00    -0.004 A 
HETATM   19  C6  UNL     1      -0.024  -2.371   1.326  1.00  0.00     0.057 C 
BRANCH  15  20
HETATM   20  S1  UNL     1      -3.798  -0.249  -1.903  1.00  0.00     0.176 S 
HETATM   21  O1  UNL     1      -4.177  -1.242  -2.961  1.00  0.00    -0.223 OA
HETATM   22  O2  UNL     1      -2.835   0.743  -2.488  1.00  0.00    -0.223 OA
BRANCH  20  23
HETATM   23  C2  UNL     1      -5.259   0.636  -1.374  1.00  0.00     0.141 C 
HETATM   24  C1  UNL     1      -4.921   1.660  -0.297  1.00  0.00     0.021 C 
ENDBRANCH  20  23
ENDBRANCH  15  20
ENDBRANCH   1  14
BRANCH   9  25
HETATM   25  O5  UNL     1       5.528  -0.262   1.681  1.00  0.00    -0.356 OA
HETATM   26  C14 UNL     1       6.641  -1.045   1.265  1.00  0.00     0.210 C 
ENDBRANCH   9  25
TORSDOF 4
