REMARK  5 active torsions:
REMARK  status: ('A' for Active; 'I' for Inactive)
REMARK    1  A    between atoms: C2_2  and  C3_3 
REMARK    2  A    between atoms: C2_2  and  C13_15 
REMARK    3  A    between atoms: C3_3  and  N1_4 
REMARK       I    between atoms: N3_17  and  C15_18 
REMARK    4  A    between atoms: C15_18  and  O2_20 
REMARK    5  A    between atoms: O2_20  and  C16_21 
ROOT
HETATM    1  C1  UNL     1       0.215  -2.593  -0.453  1.00  0.00     0.012 C 
HETATM    2  C2  UNL     1      -0.605  -1.324  -0.779  1.00  0.00     0.007 C 
ENDROOT
BRANCH   2   3
HETATM    3  C3  UNL     1      -1.717  -1.150   0.296  1.00  0.00     0.128 C 
BRANCH   3   4
HETATM    4  N1  UNL     1      -2.782  -0.215  -0.118  1.00  0.00    -0.379 N 
HETATM    5  C4  UNL     1      -2.638   1.197   0.266  1.00  0.00     0.123 C 
HETATM    6  C5  UNL     1      -3.442   1.528   1.527  1.00  0.00     0.020 C 
HETATM    7  C6  UNL     1      -4.887   1.025   1.489  1.00  0.00     0.008 C 
HETATM    8  C7  UNL     1      -5.518   1.172   0.101  1.00  0.00     0.062 C 
HETATM    9  C8  UNL     1      -5.221  -0.007  -0.795  1.00  0.00     0.060 A 
HETATM   10  N2  UNL     1      -6.255  -0.457  -1.559  1.00  0.00    -0.263 NA
HETATM   11  C12 UNL     1      -3.961  -0.682  -0.846  1.00  0.00     0.055 A 
HETATM   12  C9  UNL     1      -6.163  -1.553  -2.351  1.00  0.00     0.117 A 
HETATM   13  C10 UNL     1      -4.985  -2.285  -2.381  1.00  0.00     0.022 A 
HETATM   14  C11 UNL     1      -3.896  -1.859  -1.626  1.00  0.00     0.033 A 
ENDBRANCH   3   4
ENDBRANCH   2   3
BRANCH   2  15
HETATM   15  C13 UNL     1       0.231  -0.019  -0.962  1.00  0.00     0.027 A 
HETATM   16  C14 UNL     1       1.167   0.349   0.153  1.00  0.00     0.134 A 
HETATM   17  N3  UNL     1       2.405   0.225  -0.639  1.00  0.00    -0.327 N 
HETATM   18  C15 UNL     1       3.804   0.373  -0.424  1.00  0.00     0.363 C 
HETATM   19  C20 UNL     1       1.503  -0.109  -1.757  1.00  0.00     0.134 A 
HETATM   20  O1  UNL     1       4.600   0.187  -1.381  1.00  0.00    -0.238 OA
BRANCH  18  21
HETATM   21  O2  UNL     1       4.265   0.722   0.854  1.00  0.00    -0.294 OA
BRANCH  21  22
HETATM   22  C16 UNL     1       5.635   0.907   1.242  1.00  0.00     0.061 C 
HETATM   23  C17 UNL     1       6.432  -0.398   1.052  1.00  0.00     0.046 C 
HETATM   24  C18 UNL     1       6.275   2.056   0.440  1.00  0.00     0.046 C 
HETATM   25  C19 UNL     1       5.638   1.279   2.732  1.00  0.00     0.046 C 
ENDBRANCH  21  22
ENDBRANCH  18  21
ENDBRANCH   2  15
TORSDOF 5
