REMARK  2 active torsions:
REMARK  status: ('A' for Active; 'I' for Inactive)
REMARK       I    between atoms: C1_2  and  N1_3 
REMARK    1  A    between atoms: C1_2  and  C13_18 
REMARK       I    between atoms: N1_3  and  C2_4 
REMARK    2  A    between atoms: C2_4  and  C3_6 
ROOT
HETATM    1  O1  UNL     1       0.422   0.017   2.873  1.00  0.00    -0.267 OA
HETATM    2  C1  UNL     1       0.332  -0.063   1.617  1.00  0.00     0.258 C 
HETATM    3  N1  UNL     1       1.521  -0.198   0.816  1.00  0.00    -0.289 N 
HETATM    4  C2  UNL     1       2.856  -0.037   1.331  1.00  0.00     0.258 C 
HETATM    5  O2  UNL     1       3.047   0.043   2.576  1.00  0.00    -0.267 OA
HETATM    6  H1  UNL     1       1.411  -0.496  -0.178  1.00  0.00     0.172 HD
ENDROOT
BRANCH   2   7
HETATM    7  C13 UNL     1      -1.011  -0.035   0.987  1.00  0.00     0.033 A 
HETATM    8  C14 UNL     1      -1.180   0.407  -0.333  1.00  0.00     0.018 A 
HETATM    9  C15 UNL     1      -2.449   0.439  -0.913  1.00  0.00     0.014 A 
HETATM   10  C16 UNL     1      -3.585   0.034  -0.190  1.00  0.00    -0.017 A 
HETATM   11  C17 UNL     1      -3.423  -0.403   1.144  1.00  0.00    -0.037 A 
HETATM   12  C26 UNL     1      -4.921   0.064  -0.855  1.00  0.00     0.001 A 
HETATM   13  C18 UNL     1      -2.142  -0.424   1.723  1.00  0.00     0.025 A 
HETATM   14  C19 UNL     1      -4.613  -0.794   1.972  1.00  0.00     0.142 C 
HETATM   15  C20 UNL     1      -5.443   0.424   2.209  1.00  0.00     0.226 C 
HETATM   16  O3  UNL     1      -5.587   0.861   3.382  1.00  0.00    -0.273 OA
HETATM   17  N2  UNL     1      -6.061   1.116   1.117  1.00  0.00    -0.326 N 
HETATM   18  C21 UNL     1      -6.076   0.610  -0.230  1.00  0.00     0.045 A 
HETATM   19  H12 UNL     1      -6.697   1.911   1.352  1.00  0.00     0.169 HD
HETATM   20  C22 UNL     1      -7.276   0.697  -0.954  1.00  0.00     0.030 A 
HETATM   21  C23 UNL     1      -7.359   0.214  -2.260  1.00  0.00     0.002 A 
HETATM   22  C24 UNL     1      -6.240  -0.354  -2.865  1.00  0.00     0.001 A 
HETATM   23  C25 UNL     1      -5.031  -0.426  -2.172  1.00  0.00     0.014 A 
ENDBRANCH   2   7
BRANCH   4  24
HETATM   24  C3  UNL     1       4.022   0.019   0.416  1.00  0.00     0.033 A 
HETATM   25  C4  UNL     1       3.880   0.466  -0.909  1.00  0.00     0.018 A 
HETATM   26  C5  UNL     1       4.982   0.522  -1.764  1.00  0.00     0.016 A 
HETATM   27  C6  UNL     1       6.253   0.139  -1.310  1.00  0.00     0.016 A 
HETATM   28  C7  UNL     1       7.370   0.192  -2.164  1.00  0.00     0.127 A 
HETATM   29  C11 UNL     1       6.413  -0.302   0.027  1.00  0.00     0.017 A 
HETATM   30  F1  UNL     1       7.246   0.611  -3.449  1.00  0.00    -0.205 F 
HETATM   31  C8  UNL     1       8.629  -0.191  -1.693  1.00  0.00     0.046 A 
HETATM   32  C9  UNL     1       8.787  -0.626  -0.376  1.00  0.00     0.046 A 
HETATM   33  C10 UNL     1       7.688  -0.684   0.485  1.00  0.00     0.127 A 
HETATM   34  F2  UNL     1       7.872  -1.111   1.760  1.00  0.00    -0.205 F 
HETATM   35  C12 UNL     1       5.297  -0.354   0.879  1.00  0.00     0.032 A 
ENDBRANCH   4  24
TORSDOF 2
