REMARK  3 active torsions:
REMARK  status: ('A' for Active; 'I' for Inactive)
REMARK    1  A    between atoms: C1_2  and  C2_3 
REMARK       I    between atoms: C1_2  and  N2_19 
REMARK    2  A    between atoms: C6_7  and  C7_8 
REMARK    3  A    between atoms: N2_19  and  C16_20 
ROOT
HETATM    1  C16 UNL     1      -1.359   1.094   0.781  1.00  0.00     0.035 A 
HETATM    2  C17 UNL     1      -2.262   1.868   1.518  1.00  0.00     0.030 A 
HETATM    3  C18 UNL     1      -3.566   2.060   1.064  1.00  0.00     0.015 A 
HETATM    4  C19 UNL     1      -3.998   1.470  -0.133  1.00  0.00    -0.018 A 
HETATM    5  C20 UNL     1      -3.097   0.681  -0.889  1.00  0.00    -0.045 A 
HETATM    6  C21 UNL     1      -1.788   0.487  -0.412  1.00  0.00     0.037 A 
HETATM    7  C22 UNL     1      -3.494   0.085  -2.227  1.00  0.00     0.044 C 
HETATM    8  C23 UNL     1      -4.528  -1.067  -2.178  1.00  0.00     0.044 C 
HETATM    9  C24 UNL     1      -4.903  -1.546  -0.791  1.00  0.00    -0.047 A 
HETATM   10  C25 UNL     1      -4.351  -2.738  -0.294  1.00  0.00     0.008 A 
HETATM   11  C26 UNL     1      -4.714  -3.212   0.969  1.00  0.00     0.001 A 
HETATM   12  C27 UNL     1      -5.635  -2.505   1.745  1.00  0.00     0.001 A 
HETATM   13  C28 UNL     1      -6.184  -1.314   1.269  1.00  0.00     0.013 A 
HETATM   14  C29 UNL     1      -5.813  -0.817   0.010  1.00  0.00    -0.019 A 
HETATM   15  C30 UNL     1      -6.306   0.512  -0.416  1.00  0.00    -0.014 A 
HETATM   16  C31 UNL     1      -7.667   0.689  -0.707  1.00  0.00     0.016 A 
HETATM   17  C32 UNL     1      -8.145   1.939  -1.110  1.00  0.00     0.043 A 
HETATM   18  C33 UNL     1      -7.271   3.025  -1.206  1.00  0.00     0.117 A 
HETATM   19  F1  UNL     1      -7.740   4.240  -1.584  1.00  0.00    -0.206 F 
HETATM   20  C34 UNL     1      -5.916   2.864  -0.901  1.00  0.00     0.055 A 
HETATM   21  C35 UNL     1      -5.421   1.609  -0.516  1.00  0.00    -0.011 A 
ENDROOT
BRANCH   1  22
HETATM   22  N2  UNL     1      -0.033   0.886   1.292  1.00  0.00    -0.323 N 
HETATM   23  C1  UNL     1       1.155   0.951   0.480  1.00  0.00     0.256 C 
HETATM   24  O1  UNL     1       1.054   1.121  -0.767  1.00  0.00    -0.267 OA
HETATM   25  H11 UNL     1       0.056   0.757   2.323  1.00  0.00     0.169 HD
BRANCH  23  26
HETATM   26  C2  UNL     1       2.509   0.833   1.080  1.00  0.00     0.033 A 
HETATM   27  C3  UNL     1       2.748   1.181   2.422  1.00  0.00     0.017 A 
HETATM   28  C4  UNL     1       4.028   1.067   2.966  1.00  0.00     0.002 A 
HETATM   29  C5  UNL     1       5.090   0.622   2.179  1.00  0.00     0.012 A 
HETATM   30  C6  UNL     1       4.885   0.291   0.829  1.00  0.00    -0.025 A 
HETATM   31  C15 UNL     1       3.589   0.397   0.289  1.00  0.00     0.029 A 
BRANCH  30  32
HETATM   32  C7  UNL     1       6.024  -0.144  -0.018  1.00  0.00    -0.025 A 
HETATM   33  C8  UNL     1       6.159   0.342  -1.342  1.00  0.00     0.014 A 
HETATM   34  C9  UNL     1       7.248  -0.043  -2.141  1.00  0.00     0.031 A 
HETATM   35  C10 UNL     1       8.192  -0.911  -1.599  1.00  0.00     0.041 A 
HETATM   36  C11 UNL     1       8.072  -1.396  -0.315  1.00  0.00    -0.022 A 
HETATM   37  N1  UNL     1       9.353  -1.400  -2.244  1.00  0.00    -0.326 N 
HETATM   38  C12 UNL     1       7.000  -1.029   0.497  1.00  0.00     0.022 A 
HETATM   39  C13 UNL     1       9.213  -2.306   0.014  1.00  0.00     0.144 A 
HETATM   40  C14 UNL     1       9.971  -2.243  -1.278  1.00  0.00     0.226 A 
HETATM   41  O2  UNL     1      11.043  -2.865  -1.499  1.00  0.00    -0.273 OA
HETATM   42  H9  UNL     1       9.673  -1.202  -3.218  1.00  0.00     0.169 HD
ENDBRANCH  30  32
ENDBRANCH  23  26
ENDBRANCH   1  22
TORSDOF 3
