REMARK  5 active torsions:
REMARK  status: ('A' for Active; 'I' for Inactive)
REMARK    1  A    between atoms: C7_8  and  C8_9 
REMARK       I    between atoms: C8_9  and  N1_11 
REMARK       I    between atoms: N2_14  and  C11_15 
REMARK       I    between atoms: C11_15  and  N3_17 
REMARK    2  A    between atoms: N3_17  and  C12_18 
REMARK    3  A    between atoms: C12_18  and  C13_19 
REMARK    4  A    between atoms: C18_24  and  C19_25 
REMARK    5  A    between atoms: C19_25  and  N4_26 
ROOT
HETATM    1  C8  UNL     1      -3.441   0.768   1.677  1.00  0.00     0.259 C 
HETATM    2  O1  UNL     1      -3.488   1.770   2.443  1.00  0.00    -0.267 OA
HETATM    3  N1  UNL     1      -2.487  -0.293   1.936  1.00  0.00    -0.312 N 
HETATM    4  C9  UNL     1      -1.369  -0.050   2.853  1.00  0.00     0.152 C 
HETATM    5  C10 UNL     1      -0.174   0.490   2.073  1.00  0.00     0.148 C 
HETATM    6  N2  UNL     1       0.124  -0.325   0.888  1.00  0.00    -0.328 N 
HETATM    7  C11 UNL     1       0.965   0.277  -0.113  1.00  0.00     0.318 C 
HETATM    8  O2  UNL     1       0.628   1.380  -0.625  1.00  0.00    -0.247 OA
HETATM    9  N3  UNL     1       2.229  -0.313  -0.457  1.00  0.00    -0.339 N 
HETATM   10  C20 UNL     1      -0.018  -1.790   0.939  1.00  0.00     0.168 C 
HETATM   11  C21 UNL     1      -1.454  -2.269   0.778  1.00  0.00    -0.013 A 
HETATM   12  C22 UNL     1      -1.640  -3.526   0.165  1.00  0.00     0.011 A 
HETATM   13  C23 UNL     1      -2.906  -4.101   0.069  1.00  0.00     0.001 A 
HETATM   14  C24 UNL     1      -4.009  -3.451   0.612  1.00  0.00     0.002 A 
HETATM   15  C25 UNL     1      -3.853  -2.215   1.235  1.00  0.00     0.030 A 
HETATM   16  C26 UNL     1      -2.593  -1.589   1.303  1.00  0.00     0.045 A 
HETATM   17  H11 UNL     1       2.573  -1.132   0.093  1.00  0.00     0.164 HD
ENDROOT
BRANCH   9  18
HETATM   18  C12 UNL     1       3.185   0.333  -1.360  1.00  0.00     0.163 C 
BRANCH  18  19
HETATM   19  C13 UNL     1       4.327   0.989  -0.599  1.00  0.00    -0.032 A 
HETATM   20  C14 UNL     1       4.111   1.479   0.707  1.00  0.00     0.009 A 
HETATM   21  C15 UNL     1       5.154   2.041   1.443  1.00  0.00     0.001 A 
HETATM   22  C16 UNL     1       6.428   2.136   0.888  1.00  0.00     0.001 A 
HETATM   23  C17 UNL     1       6.655   1.708  -0.418  1.00  0.00     0.009 A 
HETATM   24  C18 UNL     1       5.606   1.174  -1.199  1.00  0.00    -0.023 A 
BRANCH  24  25
HETATM   25  C19 UNL     1       5.872   0.739  -2.632  1.00  0.00     0.305 C 
BRANCH  25  26
HETATM   26  N4  UNL     1       7.021   1.433  -3.215  1.00  0.00     0.082 N 
HETATM   27  H20 UNL     1       6.770   2.445  -3.328  1.00  0.00     0.313 HD
HETATM   28  H21 UNL     1       7.171   1.050  -4.178  1.00  0.00     0.313 HD
ENDBRANCH  25  26
ENDBRANCH  24  25
ENDBRANCH  18  19
ENDBRANCH   9  18
BRANCH   1  29
HETATM   29  C7  UNL     1      -4.394   0.715   0.544  1.00  0.00     0.038 A 
HETATM   30  C2  UNL     1      -3.971   0.635  -0.805  1.00  0.00    -0.043 A 
HETATM   31  C1  UNL     1      -2.518   0.691  -1.188  1.00  0.00     0.049 C 
HETATM   32  C3  UNL     1      -4.933   0.509  -1.822  1.00  0.00     0.050 A 
HETATM   33  C4  UNL     1      -6.295   0.519  -1.517  1.00  0.00     0.117 A 
HETATM   34  F1  UNL     1      -7.212   0.412  -2.510  1.00  0.00    -0.206 F 
HETATM   35  C5  UNL     1      -6.711   0.655  -0.194  1.00  0.00     0.043 A 
HETATM   36  C6  UNL     1      -5.769   0.757   0.831  1.00  0.00     0.020 A 
ENDBRANCH   1  29
TORSDOF 5
