REMARK  5 active torsions:
REMARK  status: ('A' for Active; 'I' for Inactive)
REMARK    1  A    between atoms: C4_4  and  C5_5 
REMARK    2  A    between atoms: C5_5  and  O2_7 
REMARK    3  A    between atoms: C8_10  and  C9_11 
REMARK    4  A    between atoms: C9_11  and  S1_12 
REMARK    5  A    between atoms: S1_12  and  N1_15 
ROOT
HETATM    1  S1  UNL     1       0.394   0.105  -0.218  1.00  0.00     0.215 S 
HETATM    2  O3  UNL     1       1.054   0.133  -1.570  1.00  0.00    -0.211 OA
HETATM    3  O4  UNL     1       0.160   1.518   0.241  1.00  0.00    -0.211 OA
ENDROOT
BRANCH   1   4
HETATM    4  C9  UNL     1       1.489  -0.707   0.941  1.00  0.00     0.196 C 
BRANCH   4   5
HETATM    5  C8  UNL     1       2.913  -0.241   0.746  1.00  0.00    -0.037 A 
HETATM    6  C2  UNL     1       3.838  -0.944  -0.067  1.00  0.00    -0.054 A 
HETATM    7  C1  UNL     1       3.470  -2.239  -0.746  1.00  0.00     0.049 C 
HETATM    8  C3  UNL     1       5.144  -0.445  -0.216  1.00  0.00     0.025 A 
HETATM    9  C4  UNL     1       5.538   0.751   0.406  1.00  0.00     0.038 A 
HETATM   10  C6  UNL     1       4.608   1.448   1.191  1.00  0.00     0.019 A 
HETATM   11  C7  UNL     1       3.312   0.959   1.356  1.00  0.00     0.010 A 
BRANCH   9  12
HETATM   12  C5  UNL     1       6.915   1.266   0.233  1.00  0.00     0.176 C 
HETATM   13  O1  UNL     1       7.268   2.342   0.787  1.00  0.00    -0.646 OA
BRANCH  12  14
HETATM   14  O2  UNL     1       7.834   0.567  -0.545  1.00  0.00    -0.773 OA
HETATM   15  H5  UNL     1       8.778   0.911  -0.670  1.00  0.00     0.167 HD
ENDBRANCH  12  14
ENDBRANCH   9  12
ENDBRANCH   4   5
ENDBRANCH   1   4
BRANCH   1  16
HETATM   16  N1  UNL     1      -1.123  -0.766  -0.315  1.00  0.00    -0.209 NA
HETATM   17  C10 UNL     1      -1.808  -0.736   0.994  1.00  0.00     0.122 C 
HETATM   18  C11 UNL     1      -3.038  -1.641   1.029  1.00  0.00     0.156 C 
HETATM   19  S2  UNL     1      -4.458  -0.992   0.143  1.00  0.00     0.153 S 
HETATM   20  O5  UNL     1      -4.807  -1.997  -0.921  1.00  0.00    -0.227 OA
HETATM   21  O6  UNL     1      -5.609  -0.933   1.109  1.00  0.00    -0.227 OA
HETATM   22  C12 UNL     1      -4.258   0.647  -0.636  1.00  0.00     0.058 C 
HETATM   23  C13 UNL     1      -5.248   0.733  -1.817  1.00  0.00     0.032 C 
HETATM   24  C14 UNL     1      -4.647   1.733   0.388  1.00  0.00     0.032 C 
HETATM   25  C15 UNL     1      -2.810   0.940  -1.161  1.00  0.00     0.040 C 
HETATM   26  C16 UNL     1      -1.941  -0.300  -1.462  1.00  0.00     0.109 C 
ENDBRANCH   1  16
TORSDOF 5
