REMARK  2 active torsions:
REMARK  status: ('A' for Active; 'I' for Inactive)
REMARK       I    between atoms: C1_2  and  N1_3 
REMARK    1  A    between atoms: C1_2  and  C23_27 
REMARK       I    between atoms: N1_3  and  C2_4 
REMARK    2  A    between atoms: C2_4  and  C3_6 
ROOT
HETATM    1  C3  UNL     1      -0.192  -0.671   0.944  1.00  0.00     0.033 A 
HETATM    2  C4  UNL     1      -0.097   0.415   0.058  1.00  0.00     0.018 A 
HETATM    3  C5  UNL     1      -1.162   1.306  -0.088  1.00  0.00     0.014 A 
HETATM    4  C6  UNL     1      -2.342   1.125   0.643  1.00  0.00    -0.018 A 
HETATM    5  C7  UNL     1      -2.445   0.054   1.555  1.00  0.00    -0.039 A 
HETATM    6  C8  UNL     1      -1.376  -0.849   1.680  1.00  0.00     0.025 A 
HETATM    7  C9  UNL     1      -3.697  -0.145   2.377  1.00  0.00     0.123 C 
HETATM    8  C10 UNL     1      -4.741  -0.945   1.646  1.00  0.00     0.164 C 
HETATM    9  O3  UNL     1      -5.535  -1.647   2.330  1.00  0.00    -0.292 OA
HETATM   10  C11 UNL     1      -4.872  -0.963   0.166  1.00  0.00     0.021 A 
HETATM   11  C12 UNL     1      -5.067  -2.210  -0.455  1.00  0.00     0.016 A 
HETATM   12  C13 UNL     1      -5.211  -2.304  -1.840  1.00  0.00     0.001 A 
HETATM   13  C14 UNL     1      -5.174  -1.155  -2.626  1.00  0.00     0.001 A 
HETATM   14  C15 UNL     1      -4.997   0.093  -2.030  1.00  0.00     0.013 A 
HETATM   15  C16 UNL     1      -4.845   0.210  -0.637  1.00  0.00    -0.011 A 
HETATM   16  C17 UNL     1      -4.709   1.577  -0.076  1.00  0.00    -0.014 A 
HETATM   17  C18 UNL     1      -5.787   2.469  -0.195  1.00  0.00     0.013 A 
HETATM   18  C19 UNL     1      -5.652   3.801   0.204  1.00  0.00     0.001 A 
HETATM   19  C20 UNL     1      -4.435   4.262   0.707  1.00  0.00     0.001 A 
HETATM   20  C21 UNL     1      -3.351   3.389   0.823  1.00  0.00     0.013 A 
HETATM   21  C22 UNL     1      -3.478   2.045   0.440  1.00  0.00    -0.014 A 
ENDROOT
BRANCH   1  22
HETATM   22  C2  UNL     1       0.925  -1.636   1.091  1.00  0.00     0.258 C 
HETATM   23  N1  UNL     1       2.282  -1.239   0.818  1.00  0.00    -0.288 N 
HETATM   24  C1  UNL     1       3.383  -2.162   0.729  1.00  0.00     0.275 C 
HETATM   25  H1  UNL     1       2.489  -0.219   0.746  1.00  0.00     0.172 HD
HETATM   26  O1  UNL     1       3.235  -3.360   1.096  1.00  0.00    -0.266 OA
HETATM   27  O2  UNL     1       0.675  -2.812   1.473  1.00  0.00    -0.267 OA
BRANCH  24  28
HETATM   28  C23 UNL     1       4.709  -1.722   0.232  1.00  0.00     0.104 A 
HETATM   29  C24 UNL     1       4.820  -0.634  -0.649  1.00  0.00     0.048 A 
HETATM   30  C25 UNL     1       6.080  -0.238  -1.111  1.00  0.00    -0.018 A 
HETATM   31  C26 UNL     1       6.208   0.851  -1.988  1.00  0.00     0.012 A 
HETATM   32  C30 UNL     1       7.231  -0.944  -0.694  1.00  0.00     0.042 A 
HETATM   33  C27 UNL     1       7.470   1.240  -2.445  1.00  0.00     0.001 A 
HETATM   34  C28 UNL     1       8.610   0.548  -2.032  1.00  0.00     0.001 A 
HETATM   35  C29 UNL     1       8.496  -0.540  -1.162  1.00  0.00     0.018 A 
HETATM   36  C31 UNL     1       7.077  -2.037   0.178  1.00  0.00     0.257 A 
HETATM   37  O4  UNL     1       8.082  -2.693   0.568  1.00  0.00    -0.267 OA
HETATM   38  N2  UNL     1       5.835  -2.398   0.610  1.00  0.00    -0.318 N 
HETATM   39  H20 UNL     1       5.755  -3.211   1.262  1.00  0.00     0.169 HD
ENDBRANCH  24  28
ENDBRANCH   1  22
TORSDOF 2
