REMARK  2 active torsions:
REMARK  status: ('A' for Active; 'I' for Inactive)
REMARK    1  A    between atoms: C9_9  and  C10_10 
REMARK    2  A    between atoms: N1_16  and  C16_17 
ROOT
HETATM    1  C1  UNL     1      -7.567  -0.928  -0.261  1.00  0.00     0.048 C 
HETATM    2  C2  UNL     1      -6.145  -1.353  -0.485  1.00  0.00    -0.061 A 
HETATM    3  C3  UNL     1      -5.765  -2.690  -0.333  1.00  0.00     0.007 A 
HETATM    4  C4  UNL     1      -4.434  -3.069  -0.525  1.00  0.00     0.013 A 
HETATM    5  C5  UNL     1      -3.447  -2.120  -0.878  1.00  0.00    -0.017 A 
HETATM    6  C6  UNL     1      -3.823  -0.762  -0.957  1.00  0.00    -0.044 A 
HETATM    7  C7  UNL     1      -5.167  -0.390  -0.762  1.00  0.00     0.014 A 
HETATM    8  C8  UNL     1      -2.777   0.303  -1.046  1.00  0.00     0.070 C 
HETATM    9  C9  UNL     1      -1.834   0.149   0.166  1.00  0.00     0.127 C 
HETATM   10  N1  UNL     1      -0.681  -0.716  -0.188  1.00  0.00    -0.337 N 
HETATM   11  C30 UNL     1      -0.816  -2.012  -0.870  1.00  0.00     0.046 A 
HETATM   12  C31 UNL     1       0.370  -2.732  -1.196  1.00  0.00     0.030 A 
HETATM   13  C32 UNL     1       0.339  -3.902  -1.946  1.00  0.00     0.002 A 
HETATM   14  C33 UNL     1      -0.869  -4.399  -2.411  1.00  0.00     0.001 A 
HETATM   15  C34 UNL     1      -2.057  -3.763  -2.073  1.00  0.00     0.014 A 
HETATM   16  C35 UNL     1      -2.076  -2.604  -1.262  1.00  0.00     0.002 A 
ENDROOT
BRANCH  10  17
HETATM   17  C16 UNL     1       0.647  -0.239   0.130  1.00  0.00     0.036 C 
HETATM   18  C17 UNL     1       1.139  -0.326   1.424  1.00  0.00     0.030 C 
HETATM   19  C18 UNL     1       2.439   0.087   1.704  1.00  0.00     0.015 C 
HETATM   20  C19 UNL     1       3.296   0.605   0.695  1.00  0.00    -0.009 C 
HETATM   21  C20 UNL     1       2.742   0.822  -0.599  1.00  0.00     0.045 C 
HETATM   22  C29 UNL     1       4.682   0.723   0.987  1.00  0.00    -0.009 A 
HETATM   23  C21 UNL     1       1.435   0.342  -0.865  1.00  0.00     0.047 C 
HETATM   24  C22 UNL     1       3.392   1.490  -1.656  1.00  0.00     0.259 C 
HETATM   25  O1  UNL     1       2.999   1.273  -2.841  1.00  0.00    -0.267 OA
HETATM   26  N2  UNL     1       4.285   2.495  -1.475  1.00  0.00    -0.289 N 
HETATM   27  C23 UNL     1       5.131   2.742  -0.441  1.00  0.00     0.259 C 
HETATM   28  H18 UNL     1       4.363   3.163  -2.281  1.00  0.00     0.172 HD
HETATM   29  O2  UNL     1       5.730   3.854  -0.438  1.00  0.00    -0.267 OA
HETATM   30  C24 UNL     1       5.514   1.780   0.510  1.00  0.00     0.043 A 
HETATM   31  C25 UNL     1       6.825   1.898   1.037  1.00  0.00     0.018 A 
HETATM   32  C26 UNL     1       7.342   0.964   1.928  1.00  0.00     0.001 A 
HETATM   33  C27 UNL     1       6.565  -0.109   2.334  1.00  0.00     0.001 A 
HETATM   34  C28 UNL     1       5.259  -0.227   1.876  1.00  0.00     0.013 A 
ENDBRANCH  10  17
BRANCH   9  35
HETATM   35  C10 UNL     1      -1.416   1.525   0.692  1.00  0.00    -0.035 A 
HETATM   36  C11 UNL     1      -1.475   1.794   2.072  1.00  0.00     0.009 A 
HETATM   37  C12 UNL     1      -1.036   3.021   2.575  1.00  0.00     0.001 A 
HETATM   38  C13 UNL     1      -0.529   3.994   1.709  1.00  0.00     0.000 A 
HETATM   39  C14 UNL     1      -0.460   3.739   0.336  1.00  0.00     0.001 A 
HETATM   40  C15 UNL     1      -0.899   2.512  -0.173  1.00  0.00     0.009 A 
ENDBRANCH   9  35
TORSDOF 2
