REMARK  3 active torsions:
REMARK  status: ('A' for Active; 'I' for Inactive)
REMARK    1  A    between atoms: C7_7  and  C8_8 
REMARK    2  A    between atoms: C10_10  and  N1_11 
REMARK       I    between atoms: N1_11  and  C11_12 
REMARK    3  A    between atoms: C11_12  and  C12_14 
ROOT
HETATM    1  N1  UNL     1       0.380   0.324  -0.160  1.00  0.00    -0.323 N 
HETATM    2  C11 UNL     1       1.615  -0.312  -0.530  1.00  0.00     0.256 C 
HETATM    3  O1  UNL     1       1.598  -1.305  -1.307  1.00  0.00    -0.267 OA
HETATM    4  H9  UNL     1       0.401   1.345   0.061  1.00  0.00     0.169 HD
ENDROOT
BRANCH   1   5
HETATM    5  C10 UNL     1      -0.903  -0.323  -0.233  1.00  0.00     0.036 A 
HETATM    6  C9  UNL     1      -2.044   0.444  -0.482  1.00  0.00     0.042 A 
HETATM    7  C8  UNL     1      -3.311  -0.149  -0.543  1.00  0.00    -0.017 A 
HETATM    8  C24 UNL     1      -3.450  -1.548  -0.359  1.00  0.00    -0.045 A 
HETATM    9  C22 UNL     1      -2.300  -2.316  -0.043  1.00  0.00    -0.053 A 
HETATM   10  C25 UNL     1      -4.810  -2.209  -0.435  1.00  0.00     0.049 C 
HETATM   11  C21 UNL     1      -1.041  -1.697   0.006  1.00  0.00     0.037 A 
HETATM   12  C23 UNL     1      -2.391  -3.798   0.219  1.00  0.00     0.049 C 
BRANCH   7  13
HETATM   13  C7  UNL     1      -4.476   0.726  -0.796  1.00  0.00    -0.019 A 
HETATM   14  C2  UNL     1      -5.262   1.232   0.266  1.00  0.00    -0.051 A 
HETATM   15  C1  UNL     1      -4.942   0.900   1.699  1.00  0.00     0.049 C 
HETATM   16  C3  UNL     1      -6.372   2.044  -0.029  1.00  0.00     0.007 A 
HETATM   17  C4  UNL     1      -6.684   2.363  -1.353  1.00  0.00     0.001 A 
HETATM   18  C5  UNL     1      -5.896   1.876  -2.396  1.00  0.00     0.001 A 
HETATM   19  C6  UNL     1      -4.796   1.061  -2.120  1.00  0.00     0.013 A 
ENDBRANCH   7  13
ENDBRANCH   1   5
BRANCH   2  20
HETATM   20  C12 UNL     1       2.916   0.216  -0.049  1.00  0.00     0.034 A 
HETATM   21  C13 UNL     1       2.984   1.039   1.084  1.00  0.00     0.018 A 
HETATM   22  C14 UNL     1       4.211   1.532   1.528  1.00  0.00     0.020 A 
HETATM   23  C15 UNL     1       5.407   1.201   0.868  1.00  0.00     0.058 A 
HETATM   24  C16 UNL     1       5.351   0.354  -0.270  1.00  0.00     0.051 A 
HETATM   25  C20 UNL     1       6.667   1.807   1.368  1.00  0.00     0.254 C 
HETATM   26  C17 UNL     1       4.105  -0.117  -0.716  1.00  0.00     0.047 A 
HETATM   27  N2  UNL     1       6.515   0.014  -1.045  1.00  0.00    -0.325 N 
HETATM   28  C18 UNL     1       7.769  -0.382  -0.480  1.00  0.00     0.239 C 
HETATM   29  H13 UNL     1       6.391  -0.136  -2.073  1.00  0.00     0.169 HD
HETATM   30  O2  UNL     1       8.691  -0.788  -1.237  1.00  0.00    -0.271 OA
HETATM   31  C19 UNL     1       8.005  -0.308   0.990  1.00  0.00     0.226 C 
HETATM   32  N3  UNL     1       7.900   1.079   1.413  1.00  0.00    -0.348 N 
HETATM   33  H16 UNL     1       8.751   1.552   1.792  1.00  0.00     0.163 HD
HETATM   34  O3  UNL     1       6.646   2.987   1.810  1.00  0.00    -0.268 OA
ENDBRANCH   2  20
TORSDOF 3
