REMARK  6 active torsions:
REMARK  status: ('A' for Active; 'I' for Inactive)
REMARK    1  A    between atoms: N1_2  and  C2_3 
REMARK    2  A    between atoms: N1_2  and  C15_21 
REMARK    3  A    between atoms: C2_3  and  C3_4 
REMARK    4  A    between atoms: C3_4  and  N2_5 
REMARK       I    between atoms: N2_5  and  C4_6 
REMARK    5  A    between atoms: C4_6  and  C5_8 
REMARK    6  A    between atoms: C10_13  and  N3_14 
ROOT
HETATM    1  C5  UNL     1      -1.377  -0.031   0.624  1.00  0.00     0.058 A 
HETATM    2  C6  UNL     1      -2.177   0.540  -0.377  1.00  0.00     0.029 A 
HETATM    3  C7  UNL     1      -3.580   0.535  -0.288  1.00  0.00    -0.015 A 
HETATM    4  C8  UNL     1      -4.196  -0.020   0.865  1.00  0.00     0.020 A 
HETATM    5  C9  UNL     1      -3.390  -0.612   1.853  1.00  0.00     0.045 A 
HETATM    6  C10 UNL     1      -1.994  -0.634   1.741  1.00  0.00     0.042 A 
HETATM    7  C11 UNL     1      -5.668  -0.010   1.068  1.00  0.00     0.161 C 
HETATM    8  O2  UNL     1      -6.213  -0.911   1.762  1.00  0.00    -0.292 OA
HETATM    9  C12 UNL     1      -6.529   1.060   0.469  1.00  0.00     0.114 C 
HETATM   10  C13 UNL     1      -6.771   0.828  -1.031  1.00  0.00     0.277 C 
HETATM   11  N4  UNL     1      -5.576   0.385  -1.766  1.00  0.00     0.087 N 
HETATM   12  C14 UNL     1      -4.367   1.154  -1.432  1.00  0.00     0.309 C 
HETATM   13  H17 UNL     1      -5.418  -0.640  -1.616  1.00  0.00     0.316 HD
ENDROOT
BRANCH   1  14
HETATM   14  C4  UNL     1       0.094   0.054   0.493  1.00  0.00     0.253 C 
HETATM   15  N2  UNL     1       0.730  -0.245  -0.760  1.00  0.00    -0.355 N 
HETATM   16  H8  UNL     1       0.145  -0.528  -1.578  1.00  0.00     0.162 HD
HETATM   17  O1  UNL     1       0.787   0.422   1.480  1.00  0.00    -0.268 OA
BRANCH  15  18
HETATM   18  C3  UNL     1       2.176  -0.150  -0.946  1.00  0.00     0.143 C 
BRANCH  18  19
HETATM   19  C2  UNL     1       2.882  -1.334  -0.282  1.00  0.00     0.143 C 
BRANCH  19  20
HETATM   20  N1  UNL     1       4.329  -1.253  -0.504  1.00  0.00    -0.367 N 
HETATM   21  C1  UNL     1       5.004  -2.317  -1.249  1.00  0.00     0.151 C 
BRANCH  20  22
HETATM   22  C15 UNL     1       5.095  -0.245   0.175  1.00  0.00     0.146 A 
HETATM   23  N5  UNL     1       5.009  -0.141   1.531  1.00  0.00    -0.242 NA
HETATM   24  C16 UNL     1       5.702   0.797   2.228  1.00  0.00     0.119 A 
HETATM   25  C17 UNL     1       6.530   1.697   1.556  1.00  0.00     0.021 A 
HETATM   26  C18 UNL     1       6.627   1.628   0.166  1.00  0.00     0.029 A 
HETATM   27  C19 UNL     1       5.907   0.658  -0.538  1.00  0.00     0.079 A 
HETATM   28 CL1  UNL     1       5.982   0.645  -2.296  1.00  0.00    -0.080 Cl
ENDBRANCH  20  22
ENDBRANCH  19  20
ENDBRANCH  18  19
ENDBRANCH  15  18
ENDBRANCH   1  14
BRANCH   6  29
HETATM   29  N3  UNL     1      -1.230  -1.307   2.752  1.00  0.00    -0.398 N 
HETATM   30  H11 UNL     1      -0.219  -1.532   2.626  1.00  0.00     0.156 HD
HETATM   31  H12 UNL     1      -1.697  -1.678   3.609  1.00  0.00     0.156 HD
ENDBRANCH   6  29
TORSDOF 6
