REMARK  2 active torsions:
REMARK  status: ('A' for Active; 'I' for Inactive)
REMARK    1  A    between atoms: C4_5  and  C5_6 
REMARK       I    between atoms: C5_6  and  N1_8 
REMARK       I    between atoms: N2_12  and  C9_13 
REMARK    2  A    between atoms: C9_13  and  C10_15 
ROOT
HETATM    1  C5  UNL     1       1.639  -0.134  -0.282  1.00  0.00     0.243 C 
HETATM    2  O2  UNL     1       1.702  -0.148  -1.546  1.00  0.00    -0.271 OA
HETATM    3  N1  UNL     1       0.906   0.921   0.387  1.00  0.00    -0.339 N 
HETATM    4  C6  UNL     1       0.294   0.694   1.710  1.00  0.00     0.128 C 
HETATM    5  C7  UNL     1      -1.065   1.403   1.873  1.00  0.00     0.040 C 
HETATM    6  C8  UNL     1      -2.098   0.983   0.807  1.00  0.00     0.128 C 
HETATM    7  N2  UNL     1      -1.611   1.162  -0.572  1.00  0.00    -0.345 N 
HETATM    8  C9  UNL     1      -1.815   0.128  -1.570  1.00  0.00     0.255 C 
HETATM    9  O3  UNL     1      -1.116   0.118  -2.625  1.00  0.00    -0.267 OA
HETATM   10  C15 UNL     1      -0.800   2.341  -0.907  1.00  0.00     0.157 C 
HETATM   11  C16 UNL     1       0.618   2.169  -0.341  1.00  0.00     0.051 A 
HETATM   12  C17 UNL     1       1.253   3.403   0.290  1.00  0.00     0.035 A 
HETATM   13  C18 UNL     1       1.795   2.862  -1.022  1.00  0.00     0.035 A 
ENDROOT
BRANCH   8  14
HETATM   14  C10 UNL     1      -2.811  -0.944  -1.378  1.00  0.00     0.047 A 
HETATM   15  C11 UNL     1      -4.161  -0.640  -1.203  1.00  0.00     0.024 A 
HETATM   16  C12 UNL     1      -5.094  -1.661  -1.028  1.00  0.00     0.075 A 
HETATM   17  C13 UNL     1      -4.646  -2.996  -1.021  1.00  0.00     0.245 A 
HETATM   18  O4  UNL     1      -5.472  -3.931  -0.852  1.00  0.00    -0.268 OA
HETATM   19  N3  UNL     1      -3.325  -3.280  -1.183  1.00  0.00    -0.333 N 
HETATM   20  C14 UNL     1      -2.416  -2.289  -1.379  1.00  0.00     0.108 A 
HETATM   21  H14 UNL     1      -2.999  -4.277  -1.176  1.00  0.00     0.168 HD
ENDBRANCH   8  14
BRANCH   1  22
HETATM   22  C4  UNL     1       2.371  -1.199   0.503  1.00  0.00     0.177 A 
HETATM   23  C3  UNL     1       3.404  -0.577   1.476  1.00  0.00     0.044 A 
HETATM   24  C2  UNL     1       4.754  -1.267   1.214  1.00  0.00     0.105 A 
HETATM   25  C1  UNL     1       4.469  -2.151   0.072  1.00  0.00     0.218 A 
HETATM   26  O1  UNL     1       5.316  -2.919  -0.451  1.00  0.00    -0.274 OA
HETATM   27  N4  UNL     1       3.132  -2.076  -0.368  1.00  0.00    -0.348 N 
HETATM   28  H22 UNL     1       2.714  -2.686  -1.100  1.00  0.00     0.163 HD
ENDBRANCH   1  22
TORSDOF 2
