REMARK  5 active torsions:
REMARK  status: ('A' for Active; 'I' for Inactive)
REMARK    1  A    between atoms: S1_2  and  N1_4 
REMARK    2  A    between atoms: S1_2  and  C9_14 
REMARK    3  A    between atoms: N1_4  and  C1_5 
REMARK    4  A    between atoms: C1_5  and  C2_6 
REMARK    5  A    between atoms: C2_6  and  C3_7 
ROOT
HETATM    1  O1  UNL     1      -1.838   2.403   0.468  1.00  0.00    -0.206 OA
HETATM    2  S1  UNL     1      -2.107   1.310   1.467  1.00  0.00     0.242 S 
HETATM    3  O2  UNL     1      -3.049   1.828   2.517  1.00  0.00    -0.206 OA
ENDROOT
BRANCH   2   4
HETATM    4  N1  UNL     1      -0.607   0.893   2.248  1.00  0.00    -0.216 NA
HETATM    5  H1  UNL     1      -0.758   0.020   2.803  1.00  0.00     0.139 HD
BRANCH   4   6
HETATM    6  C1  UNL     1       0.447   0.683   1.250  1.00  0.00     0.104 C 
BRANCH   6   7
HETATM    7  C2  UNL     1       1.738   0.209   1.939  1.00  0.00     0.020 C 
BRANCH   7   8
HETATM    8  C3  UNL     1       2.946   0.041   0.983  1.00  0.00    -0.012 C 
HETATM    9  C4  UNL     1       3.352   1.391   0.337  1.00  0.00     0.006 C 
HETATM   10  C5  UNL     1       4.857   1.522   0.042  1.00  0.00     0.030 C 
HETATM   11  C6  UNL     1       5.531   0.270  -0.538  1.00  0.00     0.269 C 
HETATM   12  N2  UNL     1       4.645  -0.446  -1.471  1.00  0.00     0.083 N 
HETATM   13  C7  UNL     1       3.921  -1.540  -0.804  1.00  0.00     0.270 C 
HETATM   14  H13 UNL     1       5.251  -0.883  -2.206  1.00  0.00     0.315 HD
HETATM   15  C8  UNL     1       2.661  -1.034  -0.094  1.00  0.00     0.034 C 
ENDBRANCH   7   8
ENDBRANCH   6   7
ENDBRANCH   4   6
ENDBRANCH   2   4
BRANCH   2  16
HETATM   16  C9  UNL     1      -2.887  -0.063   0.639  1.00  0.00     0.085 A 
HETATM   17  C10 UNL     1      -2.346  -1.354   0.784  1.00  0.00     0.026 A 
HETATM   18  C11 UNL     1      -2.910  -2.447   0.130  1.00  0.00     0.002 A 
HETATM   19  C12 UNL     1      -4.033  -2.283  -0.675  1.00  0.00     0.012 A 
HETATM   20  C13 UNL     1      -4.615  -1.019  -0.823  1.00  0.00    -0.024 A 
HETATM   21  C14 UNL     1      -5.759  -0.869  -1.623  1.00  0.00     0.012 A 
HETATM   22  C18 UNL     1      -4.054   0.108  -0.158  1.00  0.00    -0.003 A 
HETATM   23  C15 UNL     1      -6.360   0.381  -1.765  1.00  0.00     0.001 A 
HETATM   24  C16 UNL     1      -5.830   1.490  -1.108  1.00  0.00     0.001 A 
HETATM   25  C17 UNL     1      -4.691   1.360  -0.309  1.00  0.00     0.014 A 
ENDBRANCH   2  16
TORSDOF 5
