REMARK  1 active torsions:
REMARK  status: ('A' for Active; 'I' for Inactive)
REMARK    1  A    between atoms: C1_2  and  C2_3 
REMARK       I    between atoms: C1_2  and  N3_9 
ROOT
HETATM    1  O1  UNL     1       2.251  -1.819  -1.716  1.00  0.00    -0.266 OA
HETATM    2  C1  UNL     1       1.952  -0.869  -0.942  1.00  0.00     0.273 C 
HETATM    3  N3  UNL     1       0.656  -0.243  -1.064  1.00  0.00    -0.330 N 
HETATM    4  C6  UNL     1      -0.542  -1.076  -1.273  1.00  0.00     0.125 C 
HETATM    5  C7  UNL     1      -1.435  -0.477  -2.394  1.00  0.00     0.028 C 
HETATM    6  C8  UNL     1      -1.623   1.041  -2.289  1.00  0.00     0.004 C 
HETATM    7  C9  UNL     1      -0.270   1.739  -2.173  1.00  0.00     0.030 C 
HETATM    8  C10 UNL     1       0.509   1.218  -0.953  1.00  0.00     0.125 C 
HETATM    9  C11 UNL     1      -0.150   1.652   0.354  1.00  0.00     0.016 A 
HETATM   10  C12 UNL     1      -0.183   3.027   0.648  1.00  0.00     0.019 A 
HETATM   11  C13 UNL     1      -0.751   3.490   1.831  1.00  0.00     0.075 A 
HETATM   12  C14 UNL     1      -1.272   2.575   2.741  1.00  0.00     0.247 A 
HETATM   13  O2  UNL     1      -1.786   2.982   3.817  1.00  0.00    -0.268 OA
HETATM   14  N4  UNL     1      -1.218   1.243   2.472  1.00  0.00    -0.304 N 
HETATM   15  C15 UNL     1      -0.680   0.755   1.318  1.00  0.00     0.154 A 
HETATM   16  O3  UNL     1      -0.610  -0.634   1.173  1.00  0.00    -0.319 OA
HETATM   17  C16 UNL     1      -1.220  -1.385   0.119  1.00  0.00     0.113 C 
HETATM   18  C17 UNL     1      -1.085  -2.857   0.460  1.00  0.00     0.069 C 
HETATM   19  C18 UNL     1      -2.338  -3.467  -0.141  1.00  0.00     0.170 C 
HETATM   20  O4  UNL     1      -3.314  -2.461  -0.294  1.00  0.00    -0.388 OA
HETATM   21  C19 UNL     1      -2.748  -1.265   0.185  1.00  0.00     0.208 C 
HETATM   22  H14 UNL     1      -1.597   0.568   3.175  1.00  0.00     0.171 HD
ENDROOT
BRANCH   2  23
HETATM   23  C2  UNL     1       2.932  -0.436   0.081  1.00  0.00     0.127 A 
HETATM   24  C3  UNL     1       4.274  -0.836   0.008  1.00  0.00     0.056 A 
HETATM   25  C4  UNL     1       5.153  -0.416   1.007  1.00  0.00     0.120 A 
HETATM   26  N1  UNL     1       4.702   0.358   2.027  1.00  0.00    -0.254 NA
HETATM   27  C5  UNL     1       3.399   0.732   2.091  1.00  0.00     0.233 A 
HETATM   28  N2  UNL     1       2.529   0.333   1.128  1.00  0.00    -0.236 NA
ENDBRANCH   2  23
TORSDOF 1
