REMARK  4 active torsions:
REMARK  status: ('A' for Active; 'I' for Inactive)
REMARK    1  A    between atoms: N1_3  and  C3_4 
REMARK    2  A    between atoms: C3_4  and  C4_5 
REMARK    3  A    between atoms: C14_20  and  C16_22 
REMARK    4  A    between atoms: C16_22  and  O3_24 
ROOT
HETATM    1  C1  UNL     1      -1.450   2.312   0.432  1.00  0.00     0.044 C 
HETATM    2  C2  UNL     1      -1.723   0.928  -0.219  1.00  0.00     0.240 C 
HETATM    3  N1  UNL     1      -0.520   0.023  -0.279  1.00  0.00     0.100 N 
HETATM    4  C11 UNL     1      -0.650  -0.945  -1.407  1.00  0.00     0.299 C 
HETATM    5  C12 UNL     1      -1.316  -2.254  -0.952  1.00  0.00     0.198 C 
HETATM    6  O1  UNL     1      -2.182  -2.087   0.149  1.00  0.00    -0.388 OA
HETATM    7  C13 UNL     1      -3.222  -1.173  -0.145  1.00  0.00     0.190 C 
HETATM    8  C14 UNL     1      -2.931   0.207   0.498  1.00  0.00     0.093 C 
HETATM    9  C15 UNL     1      -2.621  -0.004   2.004  1.00  0.00     0.031 C 
ENDROOT
BRANCH   3  10
HETATM   10  C3  UNL     1       0.795   0.711  -0.359  1.00  0.00     0.315 C 
BRANCH  10  11
HETATM   11  C4  UNL     1       1.933  -0.228  -0.042  1.00  0.00     0.020 A 
HETATM   12  C5  UNL     1       1.849  -1.397   0.710  1.00  0.00     0.150 A 
HETATM   13  N2  UNL     1       3.075  -1.943   0.856  1.00  0.00    -0.179 NA
HETATM   14  N3  UNL     1       3.928  -1.143   0.241  1.00  0.00    -0.243 N 
HETATM   15  C6  UNL     1       5.269  -1.327   0.175  1.00  0.00     0.120 A 
HETATM   16  C10 UNL     1       3.293  -0.086  -0.299  1.00  0.00     0.090 A 
HETATM   17  C7  UNL     1       6.043  -0.365  -0.482  1.00  0.00     0.045 A 
HETATM   18  C8  UNL     1       5.422   0.766  -1.040  1.00  0.00     0.059 A 
HETATM   19 CL1  UNL     1       6.428   1.968  -1.838  1.00  0.00    -0.082 Cl
HETATM   20  C9  UNL     1       4.021   0.929  -0.950  1.00  0.00     0.085 A 
HETATM   21 CL2  UNL     1       3.260   2.378  -1.599  1.00  0.00    -0.080 Cl
ENDBRANCH  10  11
ENDBRANCH   3  10
BRANCH   8  22
HETATM   22  C16 UNL     1      -4.202   1.034   0.347  1.00  0.00     0.152 C 
HETATM   23  O2  UNL     1      -4.557   1.441  -0.793  1.00  0.00    -0.649 OA
BRANCH  22  24
HETATM   24  O3  UNL     1      -5.009   1.312   1.448  1.00  0.00    -0.776 OA
HETATM   25  H19 UNL     1      -5.861   1.850   1.346  1.00  0.00     0.167 HD
ENDBRANCH  22  24
ENDBRANCH   8  22
TORSDOF 4
