REMARK  2 active torsions:
REMARK  status: ('A' for Active; 'I' for Inactive)
REMARK    1  A    between atoms: C7_7  and  C8_8 
REMARK       I    between atoms: C8_8  and  N1_10 
REMARK    2  A    between atoms: N2_14  and  C12_15 
ROOT
HETATM    1  C8  UNL     1      -1.815   0.345  -1.092  1.00  0.00     0.254 C 
HETATM    2  O1  UNL     1      -1.594   0.592  -2.309  1.00  0.00    -0.267 OA
HETATM    3  N1  UNL     1      -0.814  -0.330  -0.301  1.00  0.00    -0.346 N 
HETATM    4  C9  UNL     1      -0.740  -0.105   1.153  1.00  0.00     0.127 C 
HETATM    5  C10 UNL     1       0.704  -0.010   1.674  1.00  0.00     0.040 C 
HETATM    6  C11 UNL     1       1.620   0.815   0.758  1.00  0.00     0.126 C 
HETATM    7  N2  UNL     1       2.203  -0.032  -0.295  1.00  0.00    -0.362 N 
HETATM    8  C17 UNL     1       1.373  -0.459  -1.431  1.00  0.00     0.144 C 
HETATM    9  C18 UNL     1       0.136  -1.232  -0.963  1.00  0.00     0.146 C 
ENDROOT
BRANCH   1  10
HETATM   10  C7  UNL     1      -3.102   0.771  -0.506  1.00  0.00     0.038 A 
HETATM   11  C2  UNL     1      -4.020  -0.158   0.044  1.00  0.00    -0.046 A 
HETATM   12  C1  UNL     1      -3.767  -1.643   0.028  1.00  0.00     0.049 C 
HETATM   13  C3  UNL     1      -5.203   0.318   0.636  1.00  0.00     0.007 A 
HETATM   14  C4  UNL     1      -5.494   1.683   0.645  1.00  0.00     0.001 A 
HETATM   15  C5  UNL     1      -4.607   2.592   0.066  1.00  0.00     0.001 A 
HETATM   16  C6  UNL     1      -3.418   2.139  -0.508  1.00  0.00     0.017 A 
ENDBRANCH   1  10
BRANCH   7  17
HETATM   17  C12 UNL     1       3.631  -0.225  -0.357  1.00  0.00     0.164 A 
HETATM   18  N3  UNL     1       4.281  -0.051  -1.543  1.00  0.00    -0.240 NA
HETATM   19  C13 UNL     1       5.624  -0.221  -1.664  1.00  0.00     0.119 A 
HETATM   20  C14 UNL     1       6.384  -0.588  -0.553  1.00  0.00     0.022 A 
HETATM   21  C15 UNL     1       5.749  -0.784   0.673  1.00  0.00     0.047 A 
HETATM   22  C16 UNL     1       4.368  -0.606   0.780  1.00  0.00     0.162 A 
HETATM   23  F1  UNL     1       3.757  -0.838   1.968  1.00  0.00    -0.202 F 
ENDBRANCH   7  17
TORSDOF 2
