REMARK  3 active torsions:
REMARK  status: ('A' for Active; 'I' for Inactive)
REMARK       I    between atoms: C1_2  and  N1_3 
REMARK    1  A    between atoms: C1_2  and  C17_22 
REMARK       I    between atoms: N1_3  and  C2_4 
REMARK       I    between atoms: C2_4  and  N2_6 
REMARK    2  A    between atoms: N2_6  and  C3_7 
REMARK    3  A    between atoms: C5_9  and  C6_10 
ROOT
HETATM    1  O1  UNL     1      -0.267  -2.745  -1.255  1.00  0.00    -0.266 OA
HETATM    2  C1  UNL     1      -0.780  -1.908  -0.462  1.00  0.00     0.276 C 
HETATM    3  N1  UNL     1       0.049  -1.223   0.496  1.00  0.00    -0.274 N 
HETATM    4  C2  UNL     1       1.484  -1.299   0.511  1.00  0.00     0.327 C 
HETATM    5  O2  UNL     1       2.095  -1.968  -0.366  1.00  0.00    -0.247 OA
HETATM    6  N2  UNL     1       2.217  -0.636   1.554  1.00  0.00    -0.309 N 
HETATM    7  H1  UNL     1      -0.408  -0.680   1.262  1.00  0.00     0.173 HD
HETATM    8  H2  UNL     1       1.680  -0.301   2.386  1.00  0.00     0.170 HD
ENDROOT
BRANCH   2   9
HETATM    9  C17 UNL     1      -2.244  -1.676  -0.516  1.00  0.00     0.104 A 
HETATM   10  C18 UNL     1      -2.800  -0.466  -0.074  1.00  0.00     0.048 A 
HETATM   11  C19 UNL     1      -4.185  -0.264  -0.132  1.00  0.00    -0.006 A 
HETATM   12  C20 UNL     1      -5.012  -1.287  -0.636  1.00  0.00     0.054 A 
HETATM   13  C35 UNL     1      -4.744   1.012   0.372  1.00  0.00    -0.015 A 
HETATM   14  C21 UNL     1      -4.417  -2.480  -1.087  1.00  0.00     0.258 A 
HETATM   15  C22 UNL     1      -6.489  -1.143  -0.649  1.00  0.00    -0.009 A 
HETATM   16  O3  UNL     1      -5.129  -3.409  -1.559  1.00  0.00    -0.267 OA
HETATM   17  N3  UNL     1      -3.066  -2.641  -1.023  1.00  0.00    -0.318 N 
HETATM   18  H15 UNL     1      -2.658  -3.543  -1.360  1.00  0.00     0.169 HD
HETATM   19  C23 UNL     1      -7.262  -1.986   0.169  1.00  0.00     0.013 A 
HETATM   20  C27 UNL     1      -7.136  -0.221  -1.504  1.00  0.00    -0.025 A 
HETATM   21  C24 UNL     1      -8.657  -1.922   0.133  1.00  0.00     0.001 A 
HETATM   22  C25 UNL     1      -9.294  -1.029  -0.730  1.00  0.00     0.001 A 
HETATM   23  C26 UNL     1      -8.539  -0.188  -1.551  1.00  0.00     0.012 A 
HETATM   24  C28 UNL     1      -6.379   0.688  -2.388  1.00  0.00     0.013 C 
HETATM   25  C29 UNL     1      -5.582   1.659  -1.928  1.00  0.00     0.013 C 
HETATM   26  C30 UNL     1      -5.388   1.932  -0.489  1.00  0.00    -0.025 A 
HETATM   27  C31 UNL     1      -5.817   3.168   0.018  1.00  0.00     0.012 A 
HETATM   28  C32 UNL     1      -5.642   3.479   1.367  1.00  0.00     0.001 A 
HETATM   29  C33 UNL     1      -5.019   2.567   2.220  1.00  0.00     0.001 A 
HETATM   30  C34 UNL     1      -4.565   1.342   1.725  1.00  0.00     0.013 A 
ENDBRANCH   2   9
BRANCH   6  31
HETATM   31  C3  UNL     1       3.652  -0.557   1.604  1.00  0.00     0.036 A 
HETATM   32  C4  UNL     1       4.418  -0.377   0.437  1.00  0.00     0.037 A 
HETATM   33  C5  UNL     1       5.820  -0.307   0.504  1.00  0.00    -0.047 A 
HETATM   34  C14 UNL     1       6.452  -0.420   1.757  1.00  0.00     0.008 A 
HETATM   35  C15 UNL     1       5.694  -0.561   2.920  1.00  0.00     0.003 A 
HETATM   36  C16 UNL     1       4.300  -0.620   2.846  1.00  0.00     0.029 A 
BRANCH  33  37
HETATM   37  C6  UNL     1       6.630  -0.170  -0.771  1.00  0.00     0.062 C 
HETATM   38  C7  UNL     1       7.322  -1.498  -1.139  1.00  0.00     0.093 C 
HETATM   39  S1  UNL     1       8.898  -1.142  -1.999  1.00  0.00    -0.128 SA
HETATM   40  C8  UNL     1       8.911   0.468  -1.246  1.00  0.00     0.007 A 
HETATM   41  C9  UNL     1      10.026   1.311  -1.219  1.00  0.00     0.019 A 
HETATM   42  C13 UNL     1       7.714   0.854  -0.676  1.00  0.00    -0.032 A 
HETATM   43  C10 UNL     1       9.910   2.578  -0.632  1.00  0.00     0.001 A 
HETATM   44  C11 UNL     1       8.685   2.991  -0.086  1.00  0.00     0.001 A 
HETATM   45  C12 UNL     1       7.578   2.133  -0.113  1.00  0.00     0.009 A 
ENDBRANCH  33  37
ENDBRANCH   6  31
TORSDOF 3
