REMARK  6 active torsions:
REMARK  status: ('A' for Active; 'I' for Inactive)
REMARK       I    between atoms: C1_2  and  N1_3 
REMARK    1  A    between atoms: C1_2  and  C27_31 
REMARK       I    between atoms: N1_3  and  C2_4 
REMARK    2  A    between atoms: C2_4  and  C3_6 
REMARK    3  A    between atoms: C6_9  and  C26_30 
REMARK    4  A    between atoms: C7_10  and  C9_13 
REMARK    5  A    between atoms: C14_18  and  C15_19 
REMARK    6  A    between atoms: C20_24  and  C21_25 
ROOT
HETATM    1  O1  UNL     1       0.494  -3.448   1.443  1.00  0.00    -0.266 OA
HETATM    2  C1  UNL     1       0.285  -2.305   0.936  1.00  0.00     0.275 C 
HETATM    3  N1  UNL     1      -1.050  -1.750   0.952  1.00  0.00    -0.288 N 
HETATM    4  C2  UNL     1      -2.203  -2.494   1.390  1.00  0.00     0.261 C 
HETATM    5  O2  UNL     1      -2.064  -3.528   2.098  1.00  0.00    -0.267 OA
HETATM    6  H1  UNL     1      -1.216  -0.804   0.550  1.00  0.00     0.172 HD
ENDROOT
BRANCH   2   7
HETATM    7  C27 UNL     1       1.432  -1.573   0.321  1.00  0.00     0.104 A 
HETATM    8  C28 UNL     1       2.739  -1.988   0.608  1.00  0.00     0.048 A 
HETATM    9  C29 UNL     1       3.831  -1.345   0.021  1.00  0.00    -0.016 A 
HETATM   10  C30 UNL     1       3.620  -0.221  -0.824  1.00  0.00     0.053 A 
HETATM   11  C53 UNL     1       5.170  -1.764   0.445  1.00  0.00     0.025 C 
HETATM   12  C31 UNL     1       2.285   0.164  -1.079  1.00  0.00     0.258 A 
HETATM   13  C32 UNL     1       4.732   0.534  -1.509  1.00  0.00    -0.009 A 
HETATM   14  O3  UNL     1       2.042   1.153  -1.824  1.00  0.00    -0.267 OA
HETATM   15  N2  UNL     1       1.245  -0.522  -0.530  1.00  0.00    -0.318 N 
HETATM   16  H17 UNL     1       0.285  -0.228  -0.808  1.00  0.00     0.169 HD
HETATM   17  C33 UNL     1       4.696   0.585  -2.918  1.00  0.00     0.013 A 
HETATM   18  C37 UNL     1       5.805   1.204  -0.831  1.00  0.00    -0.014 A 
HETATM   19  C34 UNL     1       5.646   1.303  -3.643  1.00  0.00     0.001 A 
HETATM   20  C35 UNL     1       6.651   1.995  -2.976  1.00  0.00     0.001 A 
HETATM   21  C36 UNL     1       6.729   1.951  -1.586  1.00  0.00     0.013 A 
HETATM   22  C38 UNL     1       6.002   1.147   0.644  1.00  0.00    -0.014 A 
HETATM   23  C39 UNL     1       4.919   1.489   1.473  1.00  0.00     0.013 A 
HETATM   24  C43 UNL     1       7.243   0.756   1.246  1.00  0.00    -0.014 A 
HETATM   25  C40 UNL     1       5.027   1.414   2.861  1.00  0.00     0.001 A 
HETATM   26  C41 UNL     1       6.222   1.007   3.448  1.00  0.00     0.001 A 
HETATM   27  C42 UNL     1       7.323   0.693   2.651  1.00  0.00     0.013 A 
HETATM   28  C44 UNL     1       8.493   0.445   0.479  1.00  0.00    -0.014 A 
HETATM   29  C45 UNL     1       9.633   1.233   0.727  1.00  0.00     0.013 A 
HETATM   30  C49 UNL     1       8.597  -0.617  -0.460  1.00  0.00    -0.014 A 
HETATM   31  C46 UNL     1      10.827   1.006   0.038  1.00  0.00     0.001 A 
HETATM   32  C47 UNL     1      10.905  -0.015  -0.908  1.00  0.00     0.001 A 
HETATM   33  C48 UNL     1       9.792  -0.820  -1.162  1.00  0.00     0.013 A 
HETATM   34  C50 UNL     1       7.441  -1.439  -0.794  1.00  0.00    -0.014 A 
HETATM   35  C51 UNL     1       6.710  -2.161  -1.710  1.00  0.00     0.025 A 
HETATM   36  C52 UNL     1       6.142  -1.875  -0.441  1.00  0.00    -0.023 A 
ENDBRANCH   2   7
BRANCH   4  37
HETATM   37  C3  UNL     1      -3.564  -2.106   0.962  1.00  0.00     0.071 C 
HETATM   38  C4  UNL     1      -4.421  -3.097   0.461  1.00  0.00     0.021 C 
HETATM   39  C5  UNL     1      -5.735  -2.779   0.115  1.00  0.00     0.014 C 
HETATM   40  C6  UNL     1      -6.209  -1.467   0.293  1.00  0.00    -0.011 C 
HETATM   41  C7  UNL     1      -5.252  -0.439   0.389  1.00  0.00     0.026 C 
HETATM   42  C8  UNL     1      -4.009  -0.769   0.972  1.00  0.00     0.144 C 
HETATM   43  F1  UNL     1      -3.178   0.236   1.351  1.00  0.00    -0.204 F 
BRANCH  40  44
HETATM   44  C26 UNL     1      -7.442  -1.347   1.115  1.00  0.00    -0.014 A 
HETATM   45  C21 UNL     1      -8.496  -0.448   0.822  1.00  0.00    -0.014 A 
HETATM   46  C22 UNL     1      -9.614  -0.410   1.693  1.00  0.00     0.013 A 
HETATM   47  C23 UNL     1      -9.698  -1.240   2.804  1.00  0.00     0.001 A 
HETATM   48  C24 UNL     1      -8.660  -2.113   3.097  1.00  0.00     0.001 A 
HETATM   49  C25 UNL     1      -7.541  -2.161   2.272  1.00  0.00     0.013 A 
BRANCH  45  50
HETATM   50  C20 UNL     1      -8.463   0.519  -0.311  1.00  0.00    -0.014 C 
HETATM   51  C15 UNL     1      -7.527   1.574  -0.245  1.00  0.00    -0.014 C 
HETATM   52  C16 UNL     1      -8.041   2.882  -0.122  1.00  0.00     0.013 C 
HETATM   53  C17 UNL     1      -9.355   3.155  -0.511  1.00  0.00     0.001 C 
HETATM   54  C18 UNL     1     -10.163   2.121  -0.987  1.00  0.00     0.001 C 
HETATM   55  C19 UNL     1      -9.713   0.801  -0.905  1.00  0.00     0.013 C 
BRANCH  51  56
HETATM   56  C14 UNL     1      -6.260   1.457  -1.026  1.00  0.00    -0.014 A 
HETATM   57  C9  UNL     1      -5.202   0.560  -0.717  1.00  0.00    -0.011 A 
HETATM   58  C10 UNL     1      -4.061   0.546  -1.563  1.00  0.00     0.013 A 
HETATM   59  C11 UNL     1      -3.951   1.395  -2.657  1.00  0.00     0.001 A 
HETATM   60  C12 UNL     1      -4.985   2.264  -2.963  1.00  0.00     0.001 A 
HETATM   61  C13 UNL     1      -6.128   2.287  -2.169  1.00  0.00     0.013 A 
ENDBRANCH  51  56
ENDBRANCH  45  50
ENDBRANCH  40  44
ENDBRANCH   4  37
TORSDOF 6
