REMARK  5 active torsions:
REMARK  status: ('A' for Active; 'I' for Inactive)
REMARK    1  A    between atoms: C11_13  and  C12_14 
REMARK    2  A    between atoms: C16_19  and  N2_20 
REMARK    3  A    between atoms: C18_22  and  C19_23 
REMARK    4  A    between atoms: C19_23  and  O3_24 
REMARK    5  A    between atoms: C19_23  and  C20_25 
ROOT
HETATM    1  C12 UNL     1      -0.643   0.043  -1.402  1.00  0.00     0.073 A 
HETATM    2  N1  UNL     1      -1.509  -0.062  -2.451  1.00  0.00    -0.262 NA
HETATM    3  C13 UNL     1      -1.123  -0.525  -3.670  1.00  0.00     0.117 A 
HETATM    4  C14 UNL     1       0.199  -0.915  -3.884  1.00  0.00     0.022 A 
HETATM    5  C15 UNL     1       1.112  -0.829  -2.836  1.00  0.00     0.033 A 
HETATM    6  C16 UNL     1       0.703  -0.354  -1.584  1.00  0.00     0.065 A 
ENDROOT
BRANCH   1   7
HETATM    7  C11 UNL     1      -1.153   0.542  -0.059  1.00  0.00     0.118 C 
HETATM    8  C1  UNL     1      -2.192   1.625  -0.234  1.00  0.00     0.209 C 
HETATM    9  O1  UNL     1      -1.807   2.826  -0.215  1.00  0.00    -0.288 OA
HETATM   10  C2  UNL     1      -3.606   1.367  -0.568  1.00  0.00     0.229 C 
HETATM   11  O2  UNL     1      -4.119   2.025  -1.514  1.00  0.00    -0.283 OA
HETATM   12  C3  UNL     1      -4.489   0.520   0.268  1.00  0.00     0.024 A 
HETATM   13  C4  UNL     1      -5.765   1.017   0.592  1.00  0.00     0.016 A 
HETATM   14  C8  UNL     1      -4.109  -0.759   0.743  1.00  0.00    -0.044 A 
HETATM   15  C5  UNL     1      -6.641   0.279   1.388  1.00  0.00     0.001 A 
HETATM   16  C6  UNL     1      -6.256  -0.969   1.878  1.00  0.00     0.001 A 
HETATM   17  C7  UNL     1      -5.000  -1.486   1.557  1.00  0.00     0.008 A 
HETATM   18  C9  UNL     1      -2.807  -1.398   0.340  1.00  0.00     0.040 C 
HETATM   19  C10 UNL     1      -1.601  -0.609   0.860  1.00  0.00     0.024 C 
ENDBRANCH   1   7
BRANCH   6  20
HETATM   20  N2  UNL     1       1.663  -0.253  -0.527  1.00  0.00    -0.313 N 
HETATM   21  C17 UNL     1       2.476   0.787  -0.286  1.00  0.00     0.128 A 
HETATM   22  C18 UNL     1       3.309   0.424   0.753  1.00  0.00     0.080 A 
HETATM   23  N3  UNL     1       3.024  -0.837   1.154  1.00  0.00    -0.244 NA
HETATM   24  C23 UNL     1       2.017  -1.221   0.341  1.00  0.00     0.214 A 
BRANCH  22  25
HETATM   25  C19 UNL     1       4.412   1.279   1.333  1.00  0.00     0.175 C 
BRANCH  25  26
HETATM   26  O3  UNL     1       4.460   1.126   2.728  1.00  0.00    -0.389 OA
HETATM   27  H15 UNL     1       4.782   0.205   2.919  1.00  0.00     0.210 HD
ENDBRANCH  25  26
BRANCH  25  28
HETATM   28  C20 UNL     1       5.832   1.083   0.729  1.00  0.00     0.020 A 
HETATM   29  C21 UNL     1       6.263  -0.329   0.350  1.00  0.00     0.008 A 
HETATM   30  C22 UNL     1       5.950   0.690  -0.738  1.00  0.00     0.008 A 
ENDBRANCH  25  28
ENDBRANCH  22  25
ENDBRANCH   6  20
TORSDOF 5
