REMARK  6 active torsions:
REMARK  status: ('A' for Active; 'I' for Inactive)
REMARK       I    between atoms: C1_2  and  N1_3 
REMARK    1  A    between atoms: C1_2  and  C27_31 
REMARK       I    between atoms: N1_3  and  C2_4 
REMARK    2  A    between atoms: C2_4  and  C3_6 
REMARK    3  A    between atoms: C6_9  and  C26_30 
REMARK    4  A    between atoms: C7_10  and  C9_13 
REMARK    5  A    between atoms: C14_18  and  C15_19 
REMARK    6  A    between atoms: C20_24  and  C21_25 
ROOT
HETATM    1  O1  UNL     1       2.160   0.253   2.848  1.00  0.00    -0.266 OA
HETATM    2  C1  UNL     1       1.776  -0.061   1.688  1.00  0.00     0.275 C 
HETATM    3  N1  UNL     1       0.372  -0.141   1.387  1.00  0.00    -0.288 N 
HETATM    4  C2  UNL     1      -0.657   0.380   2.244  1.00  0.00     0.261 C 
HETATM    5  O2  UNL     1      -0.351   1.049   3.265  1.00  0.00    -0.267 OA
HETATM    6  H1  UNL     1       0.091  -0.699   0.551  1.00  0.00     0.172 HD
ENDROOT
BRANCH   4   7
HETATM    7  C3  UNL     1      -2.084   0.124   1.950  1.00  0.00     0.071 A 
HETATM    8  C4  UNL     1      -2.958  -0.175   3.004  1.00  0.00     0.021 A 
HETATM    9  C5  UNL     1      -4.297  -0.470   2.754  1.00  0.00     0.014 A 
HETATM   10  C6  UNL     1      -4.795  -0.458   1.445  1.00  0.00    -0.011 A 
HETATM   11  C7  UNL     1      -3.935  -0.128   0.376  1.00  0.00     0.026 A 
HETATM   12  C8  UNL     1      -2.582   0.163   0.635  1.00  0.00     0.144 A 
HETATM   13  F1  UNL     1      -1.773   0.533  -0.392  1.00  0.00    -0.204 F 
BRANCH  10  14
HETATM   14  C26 UNL     1      -6.204  -0.845   1.211  1.00  0.00    -0.014 A 
HETATM   15  C21 UNL     1      -7.164   0.087   0.754  1.00  0.00    -0.014 A 
HETATM   16  C22 UNL     1      -8.495  -0.325   0.572  1.00  0.00     0.013 A 
HETATM   17  C23 UNL     1      -8.867  -1.647   0.827  1.00  0.00     0.001 A 
HETATM   18  C24 UNL     1      -7.919  -2.564   1.281  1.00  0.00     0.001 A 
HETATM   19  C25 UNL     1      -6.596  -2.165   1.481  1.00  0.00     0.013 A 
BRANCH  15  20
HETATM   20  C20 UNL     1      -6.804   1.497   0.487  1.00  0.00    -0.014 A 
HETATM   21  C15 UNL     1      -5.935   1.847  -0.572  1.00  0.00    -0.014 A 
HETATM   22  C16 UNL     1      -5.650   3.201  -0.814  1.00  0.00     0.013 A 
HETATM   23  C17 UNL     1      -6.216   4.196  -0.013  1.00  0.00     0.001 A 
HETATM   24  C18 UNL     1      -7.078   3.849   1.027  1.00  0.00     0.001 A 
HETATM   25  C19 UNL     1      -7.373   2.507   1.278  1.00  0.00     0.013 A 
BRANCH  21  26
HETATM   26  C14 UNL     1      -5.368   0.821  -1.477  1.00  0.00    -0.014 A 
HETATM   27  C9  UNL     1      -4.422  -0.128  -1.023  1.00  0.00    -0.011 A 
HETATM   28  C10 UNL     1      -3.909  -1.078  -1.922  1.00  0.00     0.013 A 
HETATM   29  C11 UNL     1      -4.328  -1.091  -3.253  1.00  0.00     0.001 A 
HETATM   30  C12 UNL     1      -5.254  -0.149  -3.703  1.00  0.00     0.001 A 
HETATM   31  C13 UNL     1      -5.767   0.807  -2.823  1.00  0.00     0.013 A 
ENDBRANCH  21  26
ENDBRANCH  15  20
ENDBRANCH  10  14
ENDBRANCH   4   7
BRANCH   2  32
HETATM   32  C27 UNL     1       2.781  -0.373   0.649  1.00  0.00     0.104 A 
HETATM   33  C28 UNL     1       4.015  -0.926   1.011  1.00  0.00     0.048 A 
HETATM   34  C29 UNL     1       4.969  -1.211   0.028  1.00  0.00    -0.011 A 
HETATM   35  C30 UNL     1       4.685  -0.931  -1.327  1.00  0.00     0.021 A 
HETATM   36  C45 UNL     1       6.296  -1.705   0.461  1.00  0.00    -0.014 A 
HETATM   37  C31 UNL     1       3.437  -0.351  -1.643  1.00  0.00     0.253 A 
HETATM   38  C32 UNL     1       5.673  -1.292  -2.426  1.00  0.00     0.050 C 
HETATM   39  O3  UNL     1       3.154  -0.056  -2.836  1.00  0.00    -0.268 OA
HETATM   40  N2  UNL     1       2.526  -0.099  -0.662  1.00  0.00    -0.319 N 
HETATM   41  H17 UNL     1       1.618   0.344  -0.933  1.00  0.00     0.169 HD
HETATM   42  C33 UNL     1       6.973  -0.452  -2.471  1.00  0.00     0.044 C 
HETATM   43  C34 UNL     1       7.030   0.713  -1.505  1.00  0.00    -0.047 A 
HETATM   44  C35 UNL     1       6.805   2.020  -1.970  1.00  0.00     0.008 A 
HETATM   45  C39 UNL     1       7.328   0.507  -0.138  1.00  0.00    -0.019 A 
HETATM   46  C36 UNL     1       6.905   3.108  -1.100  1.00  0.00     0.001 A 
HETATM   47  C37 UNL     1       7.228   2.904   0.243  1.00  0.00     0.001 A 
HETATM   48  C38 UNL     1       7.437   1.610   0.723  1.00  0.00     0.013 A 
HETATM   49  C40 UNL     1       7.429  -0.860   0.419  1.00  0.00    -0.014 A 
HETATM   50  C41 UNL     1       8.656  -1.317   0.926  1.00  0.00     0.013 A 
HETATM   51  C42 UNL     1       8.761  -2.607   1.452  1.00  0.00     0.001 A 
HETATM   52  C43 UNL     1       7.643  -3.445   1.491  1.00  0.00     0.001 A 
HETATM   53  C44 UNL     1       6.412  -2.994   1.004  1.00  0.00     0.013 A 
ENDBRANCH   2  32
TORSDOF 6
