REMARK  3 active torsions:
REMARK  status: ('A' for Active; 'I' for Inactive)
REMARK       I    between atoms: N1_2  and  C3_4 
REMARK    1  A    between atoms: C3_4  and  C4_6 
REMARK    2  A    between atoms: C7_9  and  N2_10 
REMARK    3  A    between atoms: C15_21  and  C16_22 
ROOT
HETATM    1  C4  UNL     1       2.640   0.904  -0.006  1.00  0.00     0.033 A 
HETATM    2  C5  UNL     1       2.226  -0.336   0.492  1.00  0.00     0.019 A 
HETATM    3  C6  UNL     1       0.873  -0.669   0.514  1.00  0.00     0.031 A 
HETATM    4  C7  UNL     1      -0.097   0.235   0.056  1.00  0.00     0.045 A 
HETATM    5  C15 UNL     1       0.305   1.503  -0.434  1.00  0.00     0.075 A 
HETATM    6  C17 UNL     1       1.679   1.822  -0.452  1.00  0.00     0.035 A 
ENDROOT
BRANCH   4   7
HETATM    7  N2  UNL     1      -1.482  -0.161   0.092  1.00  0.00    -0.371 N 
HETATM    8  C8  UNL     1      -1.973  -1.028  -0.989  1.00  0.00     0.159 C 
HETATM    9  C9  UNL     1      -3.217  -1.824  -0.539  1.00  0.00     0.244 C 
HETATM   10  C10 UNL     1      -4.510  -0.979  -0.453  1.00  0.00     0.116 C 
HETATM   11  N3  UNL     1      -2.974  -2.515   0.741  1.00  0.00     0.091 N 
HETATM   12  C11 UNL     1      -4.342   0.462   0.066  1.00  0.00     0.247 C 
HETATM   13  F1  UNL     1      -3.772   1.248  -0.919  1.00  0.00    -0.206 F 
HETATM   14  F2  UNL     1      -5.604   0.977   0.313  1.00  0.00    -0.206 F 
HETATM   15  C12 UNL     1      -3.520   0.575   1.364  1.00  0.00     0.106 C 
HETATM   16  C13 UNL     1      -2.179  -0.200   1.390  1.00  0.00     0.118 C 
HETATM   17  C14 UNL     1      -2.393  -1.671   1.806  1.00  0.00     0.295 C 
HETATM   18  H19 UNL     1      -2.326  -3.319   0.561  1.00  0.00     0.316 HD
ENDBRANCH   4   7
BRANCH   5  19
HETATM   19  C16 UNL     1      -0.710   2.503  -0.945  1.00  0.00     0.419 C 
HETATM   20  F3  UNL     1      -1.627   2.785   0.048  1.00  0.00    -0.166 F 
HETATM   21  F4  UNL     1      -1.363   1.981  -2.044  1.00  0.00    -0.166 F 
HETATM   22  F5  UNL     1      -0.115   3.694  -1.325  1.00  0.00    -0.166 F 
ENDBRANCH   5  19
BRANCH   1  23
HETATM   23  C3  UNL     1       4.074   1.267  -0.020  1.00  0.00     0.253 C 
HETATM   24  N1  UNL     1       5.088   0.340  -0.456  1.00  0.00    -0.357 N 
HETATM   25  C1  UNL     1       6.461   0.509   0.025  1.00  0.00     0.152 C 
HETATM   26  C2  UNL     1       4.787  -0.661  -1.486  1.00  0.00     0.152 C 
HETATM   27  O1  UNL     1       4.409   2.424   0.354  1.00  0.00    -0.267 OA
ENDBRANCH   1  23
TORSDOF 3
