REMARK  2 active torsions:
REMARK  status: ('A' for Active; 'I' for Inactive)
REMARK    1  A    between atoms: C5_5  and  N1_6 
REMARK       I    between atoms: N1_6  and  C6_7 
REMARK       I    between atoms: C6_7  and  N2_9 
REMARK    2  A    between atoms: N4_25  and  C19_26 
ROOT
HETATM    1  N1  UNL     1       0.513   0.856   0.050  1.00  0.00    -0.304 N 
HETATM    2  C6  UNL     1      -0.533   1.356  -0.801  1.00  0.00     0.323 C 
HETATM    3  O1  UNL     1      -0.241   2.004  -1.844  1.00  0.00    -0.247 OA
HETATM    4  N2  UNL     1      -1.914   1.156  -0.458  1.00  0.00    -0.331 N 
HETATM    5  C7  UNL     1      -2.367   0.344   0.659  1.00  0.00     0.160 C 
HETATM    6  C8  UNL     1      -3.882   0.231   0.505  1.00  0.00     0.154 C 
HETATM    7  O2  UNL     1      -4.209  -1.055  -0.028  1.00  0.00    -0.341 OA
HETATM    8  C9  UNL     1      -5.497  -1.605   0.021  1.00  0.00     0.095 A 
HETATM    9  C10 UNL     1      -5.619  -2.979   0.263  1.00  0.00     0.039 A 
HETATM   10  C11 UNL     1      -6.879  -3.564   0.405  1.00  0.00     0.003 A 
HETATM   11  C12 UNL     1      -8.029  -2.781   0.295  1.00  0.00     0.002 A 
HETATM   12  C13 UNL     1      -7.922  -1.416   0.017  1.00  0.00     0.032 A 
HETATM   13  C14 UNL     1      -6.662  -0.819  -0.149  1.00  0.00     0.061 A 
HETATM   14  N3  UNL     1      -6.590   0.554  -0.564  1.00  0.00    -0.387 N 
HETATM   15  C15 UNL     1      -5.470   1.059  -1.353  1.00  0.00     0.128 C 
HETATM   16  C16 UNL     1      -4.275   1.374  -0.446  1.00  0.00     0.052 C 
HETATM   17  C17 UNL     1      -3.009   1.705  -1.238  1.00  0.00     0.136 C 
HETATM   18  H6  UNL     1       0.275   0.622   1.039  1.00  0.00     0.171 HD
HETATM   19  H14 UNL     1      -7.447   1.149  -0.499  1.00  0.00     0.159 HD
ENDROOT
BRANCH   1  20
HETATM   20  C5  UNL     1       1.893   0.767  -0.352  1.00  0.00     0.105 C 
HETATM   21  C4  UNL     1       2.239   0.414  -1.659  1.00  0.00     0.037 C 
HETATM   22  C3  UNL     1       3.574   0.368  -2.036  1.00  0.00     0.027 C 
HETATM   23  C2  UNL     1       4.577   0.631  -1.095  1.00  0.00     0.011 C 
HETATM   24  C1  UNL     1       6.006   0.652  -1.585  1.00  0.00     0.068 C 
HETATM   25  N4  UNL     1       4.242   0.836   0.229  1.00  0.00    -0.311 N 
HETATM   26  C18 UNL     1       2.919   0.990   0.583  1.00  0.00     0.275 C 
HETATM   27  O3  UNL     1       2.609   1.359   1.750  1.00  0.00    -0.265 OA
BRANCH  25  28
HETATM   28  C19 UNL     1       5.306   1.040   1.236  1.00  0.00     0.102 A 
HETATM   29  C20 UNL     1       5.127   0.314   2.578  1.00  0.00     0.037 A 
HETATM   30  C21 UNL     1       6.147  -0.205   1.574  1.00  0.00    -0.025 A 
HETATM   31  C22 UNL     1       5.787  -1.595   1.026  1.00  0.00     0.017 C 
HETATM   32  C23 UNL     1       7.607   0.042   1.961  1.00  0.00     0.017 C 
ENDBRANCH  25  28
ENDBRANCH   1  20
TORSDOF 2
