REMARK  2 active torsions:
REMARK  status: ('A' for Active; 'I' for Inactive)
REMARK    1  A    between atoms: N1_4  and  C3_5 
REMARK    2  A    between atoms: C7_9  and  C8_10 
ROOT
HETATM    1  O1  UNL     1      -2.567   3.419  -0.491  1.00  0.00    -0.290 OA
HETATM    2  C1  UNL     1      -2.246   2.236  -0.196  1.00  0.00     0.178 C 
HETATM    3  C2  UNL     1      -0.833   1.786  -0.438  1.00  0.00     0.213 C 
HETATM    4  N1  UNL     1      -0.725   0.328  -0.570  1.00  0.00    -0.339 N 
HETATM    5  C15 UNL     1      -1.594  -0.351  -1.490  1.00  0.00     0.046 A 
HETATM    6  C16 UNL     1      -1.057  -0.926  -2.653  1.00  0.00     0.030 A 
HETATM    7  C17 UNL     1      -1.884  -1.596  -3.555  1.00  0.00     0.002 A 
HETATM    8  C18 UNL     1      -3.252  -1.701  -3.302  1.00  0.00     0.001 A 
HETATM    9  C19 UNL     1      -3.795  -1.142  -2.143  1.00  0.00     0.014 A 
HETATM   10  C20 UNL     1      -2.974  -0.466  -1.220  1.00  0.00     0.002 A 
HETATM   11  C21 UNL     1      -3.558   0.086   0.032  1.00  0.00    -0.010 A 
HETATM   12  C22 UNL     1      -4.497  -0.680   0.751  1.00  0.00     0.013 A 
HETATM   13  C23 UNL     1      -5.104  -0.170   1.900  1.00  0.00     0.001 A 
HETATM   14  C24 UNL     1      -4.790   1.113   2.345  1.00  0.00     0.001 A 
HETATM   15  C25 UNL     1      -3.859   1.886   1.651  1.00  0.00     0.016 A 
HETATM   16  C26 UNL     1      -3.223   1.379   0.505  1.00  0.00     0.023 A 
ENDROOT
BRANCH   4  17
HETATM   17  C3  UNL     1       0.385  -0.389   0.009  1.00  0.00     0.036 A 
HETATM   18  C4  UNL     1       0.188  -1.674   0.538  1.00  0.00     0.029 A 
HETATM   19  C5  UNL     1       1.255  -2.379   1.098  1.00  0.00     0.003 A 
HETATM   20  C6  UNL     1       2.531  -1.813   1.131  1.00  0.00     0.012 A 
HETATM   21  C7  UNL     1       2.755  -0.531   0.598  1.00  0.00    -0.024 A 
HETATM   22  C14 UNL     1       1.674   0.174   0.038  1.00  0.00     0.042 A 
BRANCH  21  23
HETATM   23  C8  UNL     1       4.114   0.067   0.623  1.00  0.00    -0.026 A 
HETATM   24  C9  UNL     1       4.604   0.779  -0.488  1.00  0.00     0.015 A 
HETATM   25  C10 UNL     1       5.884   1.341  -0.461  1.00  0.00     0.043 A 
HETATM   26  C11 UNL     1       6.689   1.199   0.672  1.00  0.00     0.116 A 
HETATM   27  F1  UNL     1       7.929   1.746   0.695  1.00  0.00    -0.206 F 
HETATM   28  C12 UNL     1       6.214   0.495   1.781  1.00  0.00     0.043 A 
HETATM   29  C13 UNL     1       4.935  -0.070   1.759  1.00  0.00     0.015 A 
ENDBRANCH  21  23
ENDBRANCH   4  17
TORSDOF 2
