REMARK  3 active torsions:
REMARK  status: ('A' for Active; 'I' for Inactive)
REMARK    1  A    between atoms: N2_18  and  C16_19 
REMARK    2  A    between atoms: C19_23  and  N4_24 
REMARK    3  A    between atoms: N4_24  and  C20_25 
ROOT
HETATM    1  C1  UNL     1      -4.212   2.998  -2.585  1.00  0.00     0.048 C 
HETATM    2  C2  UNL     1      -3.659   2.238  -1.415  1.00  0.00    -0.060 A 
HETATM    3  C3  UNL     1      -2.711   2.834  -0.576  1.00  0.00     0.007 A 
HETATM    4  C4  UNL     1      -2.228   2.148   0.539  1.00  0.00     0.011 A 
HETATM    5  C5  UNL     1      -2.679   0.851   0.838  1.00  0.00    -0.013 A 
HETATM    6  C6  UNL     1      -3.647   0.252  -0.004  1.00  0.00     0.043 A 
HETATM    7  C7  UNL     1      -4.143   0.960  -1.107  1.00  0.00     0.037 A 
HETATM    8  N1  UNL     1      -4.206  -1.035   0.288  1.00  0.00    -0.326 N 
HETATM    9  C8  UNL     1      -3.498  -2.272   0.119  1.00  0.00     0.226 C 
HETATM   10  O1  UNL     1      -4.121  -3.356   0.275  1.00  0.00    -0.273 OA
HETATM   11  C9  UNL     1      -2.038  -2.326  -0.236  1.00  0.00     0.144 C 
HETATM   12  C10 UNL     1      -1.240  -2.816   0.944  1.00  0.00    -0.022 A 
HETATM   13  C11 UNL     1      -1.064  -4.199   1.126  1.00  0.00     0.010 A 
HETATM   14  C12 UNL     1      -0.337  -4.686   2.215  1.00  0.00     0.001 A 
HETATM   15  C13 UNL     1       0.219  -3.799   3.136  1.00  0.00     0.002 A 
HETATM   16  C14 UNL     1       0.045  -2.423   2.975  1.00  0.00     0.030 A 
HETATM   17  C15 UNL     1      -0.693  -1.921   1.892  1.00  0.00     0.043 A 
HETATM   18  N2  UNL     1      -0.838  -0.500   1.750  1.00  0.00    -0.326 N 
HETATM   19  C24 UNL     1      -2.127   0.141   2.055  1.00  0.00     0.171 C 
HETATM   20  H7  UNL     1      -5.241  -1.087   0.419  1.00  0.00     0.169 HD
ENDROOT
BRANCH  18  21
HETATM   21  C16 UNL     1       0.335   0.267   1.424  1.00  0.00     0.151 A 
HETATM   22  C17 UNL     1       0.706   1.387   2.179  1.00  0.00     0.071 A 
HETATM   23  C18 UNL     1       1.865   2.074   1.824  1.00  0.00     0.140 A 
HETATM   24  N3  UNL     1       2.612   1.647   0.775  1.00  0.00    -0.075 NA
HETATM   25  C19 UNL     1       2.255   0.550   0.056  1.00  0.00     0.724 A 
HETATM   26  N5  UNL     1       1.126  -0.130   0.391  1.00  0.00    -0.045 NA
BRANCH  25  27
HETATM   27  N4  UNL     1       3.047   0.093  -1.054  1.00  0.00    -0.214 N 
HETATM   28  H16 UNL     1       2.693  -0.758  -1.548  1.00  0.00     0.178 HD
BRANCH  27  29
HETATM   29  C20 UNL     1       4.293   0.721  -1.541  1.00  0.00     0.036 C 
HETATM   30  C21 UNL     1       4.814  -0.078  -2.754  1.00  0.00     0.038 C 
HETATM   31  C22 UNL     1       4.023   2.170  -1.994  1.00  0.00     0.038 C 
HETATM   32  C23 UNL     1       5.372   0.693  -0.441  1.00  0.00     0.038 C 
ENDBRANCH  27  29
ENDBRANCH  25  27
ENDBRANCH  18  21
TORSDOF 3
