REMARK  3 active torsions:
REMARK  status: ('A' for Active; 'I' for Inactive)
REMARK    1  A    between atoms: N1_2  and  C2_3 
REMARK    2  A    between atoms: C6_7  and  C7_8 
REMARK       I    between atoms: C7_8  and  N2_10 
REMARK    3  A    between atoms: C16_21  and  C17_22 
ROOT
HETATM    1  C7  UNL     1       1.010  -1.676   0.709  1.00  0.00     0.281 C 
HETATM    2  O1  UNL     1       0.865  -2.794   1.279  1.00  0.00    -0.265 OA
HETATM    3  N2  UNL     1       0.276  -1.396  -0.501  1.00  0.00    -0.255 N 
HETATM    4  C8  UNL     1       1.030  -1.114  -1.692  1.00  0.00     0.330 C 
HETATM    5  O2  UNL     1       2.190  -1.609  -1.802  1.00  0.00    -0.246 OA
HETATM    6  N3  UNL     1       0.534  -0.304  -2.779  1.00  0.00    -0.308 N 
HETATM    7  C9  UNL     1      -0.651   0.516  -2.930  1.00  0.00     0.042 A 
HETATM    8  C10 UNL     1      -0.886   1.060  -4.211  1.00  0.00     0.030 A 
HETATM    9  C11 UNL     1      -1.951   1.928  -4.453  1.00  0.00     0.002 A 
HETATM   10  C12 UNL     1      -2.803   2.288  -3.417  1.00  0.00     0.001 A 
HETATM   11  C13 UNL     1      -2.610   1.755  -2.146  1.00  0.00     0.009 A 
HETATM   12  C14 UNL     1      -1.560   0.846  -1.885  1.00  0.00    -0.029 A 
HETATM   13  C15 UNL     1      -1.468   0.295  -0.486  1.00  0.00     0.071 C 
HETATM   14  C16 UNL     1      -1.176  -1.210  -0.489  1.00  0.00     0.135 C 
HETATM   15  H8  UNL     1       1.190  -0.283  -3.602  1.00  0.00     0.170 HD
ENDROOT
BRANCH   1  16
HETATM   16  C6  UNL     1       1.910  -0.652   1.288  1.00  0.00     0.127 A 
HETATM   17  C5  UNL     1       2.647  -0.901   2.458  1.00  0.00     0.037 A 
HETATM   18  C4  UNL     1       3.458   0.102   2.986  1.00  0.00     0.006 A 
HETATM   19  C3  UNL     1       3.534   1.343   2.352  1.00  0.00     0.050 A 
HETATM   20  C2  UNL     1       2.791   1.562   1.177  1.00  0.00     0.123 A 
HETATM   21  N4  UNL     1       2.005   0.566   0.690  1.00  0.00    -0.226 NA
BRANCH  20  22
HETATM   22  N1  UNL     1       2.826   2.817   0.479  1.00  0.00    -0.379 N 
HETATM   23  C1  UNL     1       3.756   3.896   0.805  1.00  0.00     0.147 C 
HETATM   24  H4  UNL     1       2.192   2.937  -0.346  1.00  0.00     0.160 HD
ENDBRANCH  20  22
ENDBRANCH   1  16
BRANCH  14  25
HETATM   25  C17 UNL     1      -1.851  -1.943   0.668  1.00  0.00    -0.035 A 
HETATM   26  C18 UNL     1      -2.404  -3.221   0.451  1.00  0.00     0.009 A 
HETATM   27  C19 UNL     1      -3.003  -3.921   1.502  1.00  0.00     0.001 A 
HETATM   28  C20 UNL     1      -3.048  -3.361   2.783  1.00  0.00     0.000 A 
HETATM   29  C21 UNL     1      -2.484  -2.105   3.018  1.00  0.00     0.001 A 
HETATM   30  C22 UNL     1      -1.881  -1.403   1.971  1.00  0.00     0.009 A 
ENDBRANCH  14  25
TORSDOF 3
