REMARK  2 active torsions:
REMARK  status: ('A' for Active; 'I' for Inactive)
REMARK    1  A    between atoms: C4_5  and  C5_6 
REMARK    2  A    between atoms: C7_8  and  C8_9 
ROOT
HETATM    1  C5  UNL     1       1.125   0.269  -0.152  1.00  0.00    -0.023 C 
HETATM    2  C6  UNL     1       0.436   1.377   0.411  1.00  0.00     0.025 C 
HETATM    3  C7  UNL     1      -0.971   1.386   0.569  1.00  0.00    -0.013 C 
HETATM    4  C14 UNL     1      -1.590   0.138   0.601  1.00  0.00    -0.003 A 
HETATM    5  C15 UNL     1      -1.310  -1.204   0.939  1.00  0.00    -0.013 A 
HETATM    6  C16 UNL     1      -2.146  -0.929  -0.190  1.00  0.00    -0.013 A 
HETATM    7  C17 UNL     1      -2.757  -1.420  -1.259  1.00  0.00     0.013 C 
HETATM    8  C18 UNL     1      -2.739  -2.876  -1.444  1.00  0.00     0.001 C 
HETATM    9  C19 UNL     1      -1.913  -3.527  -2.274  1.00  0.00     0.003 C 
HETATM   10  C20 UNL     1      -0.954  -2.902  -3.217  1.00  0.00     0.043 C 
HETATM   11  C21 UNL     1       0.125  -2.165  -2.889  1.00  0.00     0.126 C 
HETATM   12  F1  UNL     1       0.881  -1.667  -3.899  1.00  0.00    -0.205 F 
HETATM   13  C22 UNL     1      -0.369  -2.012   1.545  1.00  0.00     0.013 C 
HETATM   14  C23 UNL     1       0.540  -2.802   0.824  1.00  0.00     0.002 C 
HETATM   15  C24 UNL     1       0.757  -2.805  -0.569  1.00  0.00     0.014 C 
HETATM   16  C25 UNL     1       0.493  -1.777  -1.507  1.00  0.00     0.003 C 
HETATM   17  C26 UNL     1       0.572  -0.383  -1.272  1.00  0.00     0.027 C 
ENDROOT
BRANCH   1  18
HETATM   18  C4  UNL     1       2.520   0.005   0.251  1.00  0.00    -0.010 A 
HETATM   19  C3  UNL     1       2.805  -0.366   1.583  1.00  0.00     0.019 A 
HETATM   20  C2  UNL     1       4.137  -0.531   1.986  1.00  0.00     0.075 A 
HETATM   21  C1  UNL     1       5.173  -0.282   1.061  1.00  0.00     0.245 A 
HETATM   22  O1  UNL     1       6.377  -0.418   1.422  1.00  0.00    -0.268 OA
HETATM   23  N1  UNL     1       4.879   0.069  -0.227  1.00  0.00    -0.333 N 
HETATM   24  C27 UNL     1       3.587   0.220  -0.642  1.00  0.00     0.103 A 
HETATM   25  H18 UNL     1       5.652   0.182  -0.922  1.00  0.00     0.168 HD
ENDBRANCH   1  18
BRANCH   3  26
HETATM   26  C8  UNL     1      -1.710   2.636   0.899  1.00  0.00    -0.025 A 
HETATM   27  C9  UNL     1      -2.810   2.612   1.784  1.00  0.00     0.012 A 
HETATM   28  C10 UNL     1      -3.547   3.784   2.032  1.00  0.00     0.001 A 
HETATM   29  C11 UNL     1      -3.203   4.984   1.396  1.00  0.00     0.000 A 
HETATM   30  C12 UNL     1      -2.108   5.021   0.525  1.00  0.00     0.001 A 
HETATM   31  C13 UNL     1      -1.357   3.860   0.286  1.00  0.00     0.012 A 
ENDBRANCH   3  26
TORSDOF 2
