REMARK  2 active torsions:
REMARK  status: ('A' for Active; 'I' for Inactive)
REMARK    1  A    between atoms: O1_2  and  C2_3 
REMARK    2  A    between atoms: C6_7  and  C7_8 
REMARK       I    between atoms: C7_8  and  N1_10 
ROOT
HETATM    1  C7  UNL     1      -0.012  -0.351  -0.765  1.00  0.00     0.285 C 
HETATM    2  O2  UNL     1      -0.255  -0.498  -1.994  1.00  0.00    -0.265 OA
HETATM    3  N1  UNL     1      -1.096  -0.408   0.184  1.00  0.00    -0.179 N 
HETATM    4  O3  UNL     1      -0.947   0.146   1.418  1.00  0.00    -0.268 OA
HETATM    5  C8  UNL     1      -1.446   1.460   1.349  1.00  0.00     0.229 C 
HETATM    6  C9  UNL     1      -2.957   1.453   1.546  1.00  0.00     0.204 C 
HETATM    7  O4  UNL     1      -3.641   0.953   0.398  1.00  0.00    -0.344 OA
HETATM    8  C10 UNL     1      -3.558  -0.369  -0.060  1.00  0.00     0.140 A 
HETATM    9  C11 UNL     1      -4.737  -0.995  -0.488  1.00  0.00     0.152 A 
HETATM   10  F1  UNL     1      -5.917  -0.328  -0.434  1.00  0.00    -0.203 F 
HETATM   11  C12 UNL     1      -4.711  -2.310  -0.958  1.00  0.00     0.048 A 
HETATM   12  C13 UNL     1      -3.505  -3.008  -1.015  1.00  0.00     0.048 A 
HETATM   13  C14 UNL     1      -2.317  -2.390  -0.616  1.00  0.00     0.148 A 
HETATM   14  F2  UNL     1      -1.154  -3.086  -0.680  1.00  0.00    -0.203 F 
HETATM   15  C15 UNL     1      -2.331  -1.064  -0.146  1.00  0.00     0.141 A 
ENDROOT
BRANCH   1  16
HETATM   16  C6  UNL     1       1.379  -0.098  -0.326  1.00  0.00     0.076 A 
HETATM   17  C5  UNL     1       1.852  -0.648   0.877  1.00  0.00     0.020 A 
HETATM   18  C4  UNL     1       3.166  -0.423   1.289  1.00  0.00     0.004 A 
HETATM   19  C3  UNL     1       4.026   0.347   0.506  1.00  0.00     0.040 A 
HETATM   20  C2  UNL     1       3.576   0.899  -0.708  1.00  0.00     0.107 A 
HETATM   21  C16 UNL     1       2.255   0.669  -1.119  1.00  0.00     0.165 A 
HETATM   22  F3  UNL     1       1.824   1.218  -2.284  1.00  0.00    -0.202 F 
BRANCH  20  23
HETATM   23  O1  UNL     1       4.405   1.678  -1.530  1.00  0.00    -0.353 OA
HETATM   24  C1  UNL     1       5.763   1.992  -1.237  1.00  0.00     0.210 C 
ENDBRANCH  20  23
ENDBRANCH   1  16
TORSDOF 2
