REMARK  4 active torsions:
REMARK  status: ('A' for Active; 'I' for Inactive)
REMARK    1  A    between atoms: C1_2  and  C2_3 
REMARK       I    between atoms: C1_2  and  N1_22 
REMARK    2  A    between atoms: C20_23  and  C37_40 
REMARK    3  A    between atoms: C25_28  and  C26_29 
REMARK    4  A    between atoms: C31_34  and  C32_35 
ROOT
HETATM    1  O1  UNL     1      -1.594   0.538   3.155  1.00  0.00    -0.267 OA
HETATM    2  C1  UNL     1      -1.137   0.704   1.990  1.00  0.00     0.266 C 
HETATM    3  N1  UNL     1      -1.845   1.552   1.060  1.00  0.00    -0.277 N 
HETATM    4  C20 UNL     1      -3.164   1.971   1.321  1.00  0.00     0.054 C 
HETATM    5  C21 UNL     1      -3.460   3.272   1.142  1.00  0.00     0.031 C 
HETATM    6  C22 UNL     1      -2.481   4.234   0.571  1.00  0.00     0.002 C 
HETATM    7  C23 UNL     1      -1.619   3.934  -0.427  1.00  0.00     0.002 C 
HETATM    8  C24 UNL     1      -1.504   2.591  -1.055  1.00  0.00     0.031 C 
HETATM    9  C25 UNL     1      -1.648   1.467  -0.339  1.00  0.00     0.054 C 
ENDROOT
BRANCH   2  10
HETATM   10  C2  UNL     1       0.107   0.006   1.597  1.00  0.00     0.072 A 
HETATM   11  C3  UNL     1       1.081   0.668   0.845  1.00  0.00     0.033 A 
HETATM   12  C4  UNL     1       2.225  -0.004   0.344  1.00  0.00    -0.013 A 
HETATM   13  C5  UNL     1       2.456  -1.348   0.755  1.00  0.00    -0.011 A 
HETATM   14  C19 UNL     1       3.138   0.639  -0.540  1.00  0.00    -0.014 A 
HETATM   15  C6  UNL     1       1.450  -1.997   1.519  1.00  0.00     0.056 A 
HETATM   16  C8  UNL     1       3.667  -2.005   0.388  1.00  0.00    -0.014 A 
HETATM   17  C7  UNL     1       0.296  -1.334   1.923  1.00  0.00     0.133 A 
HETATM   18  F1  UNL     1      -0.653  -2.018   2.614  1.00  0.00    -0.205 F 
HETATM   19  C9  UNL     1       3.981  -3.310   0.858  1.00  0.00     0.013 A 
HETATM   20  C13 UNL     1       4.615  -1.339  -0.449  1.00  0.00    -0.014 A 
HETATM   21  C10 UNL     1       5.151  -3.957   0.479  1.00  0.00     0.001 A 
HETATM   22  C11 UNL     1       6.048  -3.330  -0.365  1.00  0.00     0.001 A 
HETATM   23  C12 UNL     1       5.793  -2.044  -0.824  1.00  0.00     0.013 A 
HETATM   24  C14 UNL     1       4.356  -0.011  -0.903  1.00  0.00    -0.014 A 
HETATM   25  C15 UNL     1       5.281   0.702  -1.715  1.00  0.00     0.013 A 
HETATM   26  C16 UNL     1       4.988   1.969  -2.209  1.00  0.00     0.001 A 
HETATM   27  C17 UNL     1       3.771   2.561  -1.925  1.00  0.00     0.001 A 
HETATM   28  C18 UNL     1       2.853   1.909  -1.110  1.00  0.00     0.013 A 
ENDBRANCH   2  10
BRANCH   4  29
HETATM   29  C37 UNL     1      -4.226   0.941   1.265  1.00  0.00     0.002 A 
HETATM   30  C32 UNL     1      -4.160  -0.208   0.388  1.00  0.00    -0.013 A 
HETATM   31  C33 UNL     1      -5.353  -0.964   0.252  1.00  0.00     0.013 A 
HETATM   32  C34 UNL     1      -6.487  -0.705   1.019  1.00  0.00     0.001 A 
HETATM   33  C35 UNL     1      -6.489   0.336   1.935  1.00  0.00     0.001 A 
HETATM   34  C36 UNL     1      -5.376   1.159   2.049  1.00  0.00     0.014 A 
BRANCH  30  35
HETATM   35  C31 UNL     1      -2.942  -0.681  -0.428  1.00  0.00    -0.013 A 
HETATM   36  C26 UNL     1      -1.904   0.163  -0.942  1.00  0.00     0.002 A 
HETATM   37  C27 UNL     1      -0.942  -0.342  -1.835  1.00  0.00     0.014 A 
HETATM   38  C28 UNL     1      -0.933  -1.690  -2.174  1.00  0.00     0.001 A 
HETATM   39  C29 UNL     1      -1.860  -2.553  -1.601  1.00  0.00     0.001 A 
HETATM   40  C30 UNL     1      -2.840  -2.063  -0.735  1.00  0.00     0.013 A 
ENDBRANCH  30  35
ENDBRANCH   4  29
TORSDOF 4
