REMARK  2 active torsions:
REMARK  status: ('A' for Active; 'I' for Inactive)
REMARK    1  A    between atoms: C5_7  and  C7_9 
REMARK    2  A    between atoms: C10_14  and  C11_15 
ROOT
HETATM    1  C7  UNL     1       3.237   0.845   0.724  1.00  0.00    -0.014 A 
HETATM    2  C8  UNL     1       3.443   1.326   2.031  1.00  0.00     0.101 A 
HETATM    3  N2  UNL     1       2.394   1.702   2.808  1.00  0.00    -0.332 N 
HETATM    4  C9  UNL     1       1.107   1.609   2.376  1.00  0.00     0.256 A 
HETATM    5  O2  UNL     1       0.169   1.946   3.148  1.00  0.00    -0.267 OA
HETATM    6  C10 UNL     1       0.831   1.111   1.090  1.00  0.00     0.043 A 
HETATM    7  C23 UNL     1       1.907   0.715   0.280  1.00  0.00     0.029 A 
HETATM    8  H12 UNL     1       2.587   2.059   3.772  1.00  0.00     0.168 HD
ENDROOT
BRANCH   6   9
HETATM    9  C11 UNL     1      -0.559   0.979   0.585  1.00  0.00    -0.018 A 
HETATM   10  C12 UNL     1      -1.454   2.052   0.670  1.00  0.00     0.013 A 
HETATM   11  C13 UNL     1      -2.752   1.930   0.173  1.00  0.00     0.010 A 
HETATM   12  C14 UNL     1      -3.188   0.731  -0.418  1.00  0.00    -0.031 A 
HETATM   13  C15 UNL     1      -2.299  -0.365  -0.482  1.00  0.00     0.042 A 
HETATM   14  C22 UNL     1      -4.569   0.675  -1.033  1.00  0.00     0.050 C 
HETATM   15  C16 UNL     1      -0.988  -0.223   0.001  1.00  0.00     0.042 A 
HETATM   16  N3  UNL     1      -2.700  -1.636  -1.013  1.00  0.00    -0.327 N 
HETATM   17  C17 UNL     1      -3.877  -2.296  -0.543  1.00  0.00     0.222 C 
HETATM   18  H16 UNL     1      -1.939  -2.264  -1.361  1.00  0.00     0.169 HD
HETATM   19  O3  UNL     1      -3.764  -3.387   0.077  1.00  0.00    -0.273 OA
HETATM   20  C18 UNL     1      -5.247  -1.781  -0.878  1.00  0.00     0.112 C 
HETATM   21  C19 UNL     1      -5.537  -0.347  -0.369  1.00  0.00    -0.035 C 
HETATM   22  C20 UNL     1      -5.466  -0.285   1.175  1.00  0.00     0.015 C 
HETATM   23  C21 UNL     1      -6.979   0.014  -0.792  1.00  0.00     0.015 C 
ENDBRANCH   6   9
BRANCH   1  24
HETATM   24  C5  UNL     1       4.415   0.361  -0.133  1.00  0.00     0.061 C 
HETATM   25  C2  UNL     1       4.829  -1.098   0.283  1.00  0.00     0.023 C 
HETATM   26  C1  UNL     1       5.997  -1.215   1.274  1.00  0.00     0.013 C 
HETATM   27  C3  UNL     1       5.103  -1.866  -1.025  1.00  0.00     0.109 C 
HETATM   28  C4  UNL     1       4.434  -1.025  -2.036  1.00  0.00     0.218 C 
HETATM   29  O1  UNL     1       4.280  -1.360  -3.239  1.00  0.00    -0.274 OA
HETATM   30  N1  UNL     1       4.018   0.225  -1.531  1.00  0.00    -0.348 N 
HETATM   31  H7  UNL     1       3.642   1.000  -2.124  1.00  0.00     0.163 HD
HETATM   32  C6  UNL     1       5.587   1.370  -0.106  1.00  0.00     0.044 C 
ENDBRANCH   1  24
TORSDOF 2
