REMARK  5 active torsions:
REMARK  status: ('A' for Active; 'I' for Inactive)
REMARK    1  A    between atoms: C7_7  and  N1_8 
REMARK    2  A    between atoms: N1_8  and  C8_9 
REMARK    3  A    between atoms: C11_12  and  C12_13 
REMARK    4  A    between atoms: C16_17  and  C17_18 
REMARK       I    between atoms: C17_18  and  N2_20 
REMARK    5  A    between atoms: N2_20  and  C18_21 
ROOT
HETATM    1  C8  UNL     1      -2.559   0.025   0.229  1.00  0.00     0.048 A 
HETATM    2  C9  UNL     1      -3.922  -0.309   0.280  1.00  0.00     0.031 A 
HETATM    3  C10 UNL     1      -4.327  -1.638   0.409  1.00  0.00     0.010 A 
HETATM    4  C11 UNL     1      -3.377  -2.667   0.482  1.00  0.00    -0.054 A 
HETATM    5  C15 UNL     1      -2.011  -2.339   0.424  1.00  0.00     0.027 A 
HETATM    6  C16 UNL     1      -1.591  -1.004   0.292  1.00  0.00     0.059 A 
ENDROOT
BRANCH   6   7
HETATM    7  C17 UNL     1      -0.144  -0.695   0.277  1.00  0.00     0.258 C 
HETATM    8  O1  UNL     1       0.289   0.263   0.974  1.00  0.00    -0.267 OA
HETATM    9  N2  UNL     1       0.768  -1.497  -0.494  1.00  0.00    -0.323 N 
HETATM   10  H19 UNL     1       0.431  -2.404  -0.888  1.00  0.00     0.169 HD
BRANCH   9  11
HETATM   11  C18 UNL     1       2.147  -1.154  -0.711  1.00  0.00     0.036 A 
HETATM   12  C19 UNL     1       3.104  -2.170  -0.778  1.00  0.00     0.030 A 
HETATM   13  C20 UNL     1       4.443  -1.865  -1.015  1.00  0.00     0.010 A 
HETATM   14  C21 UNL     1       4.860  -0.533  -1.195  1.00  0.00    -0.042 A 
HETATM   15  C22 UNL     1       3.897   0.505  -1.136  1.00  0.00     0.040 A 
HETATM   16  C27 UNL     1       6.303  -0.276  -1.562  1.00  0.00     0.041 C 
HETATM   17  C23 UNL     1       2.546   0.177  -0.914  1.00  0.00     0.047 A 
HETATM   18  C24 UNL     1       4.247   1.940  -1.272  1.00  0.00     0.252 C 
HETATM   19  O2  UNL     1       3.454   2.714  -1.873  1.00  0.00    -0.268 OA
HETATM   20  N3  UNL     1       5.373   2.501  -0.591  1.00  0.00    -0.357 N 
HETATM   21  C25 UNL     1       6.747   2.121  -0.890  1.00  0.00     0.123 C 
HETATM   22  H23 UNL     1       5.225   3.397  -0.074  1.00  0.00     0.162 HD
HETATM   23  C26 UNL     1       7.005   0.652  -0.566  1.00  0.00     0.024 C 
ENDBRANCH   9  11
ENDBRANCH   6   7
BRANCH   1  24
HETATM   24  N1  UNL     1      -2.165   1.394   0.023  1.00  0.00    -0.355 N 
HETATM   25  H8  UNL     1      -1.354   1.578  -0.609  1.00  0.00     0.166 HD
BRANCH  24  26
HETATM   26  C7  UNL     1      -2.828   2.516   0.638  1.00  0.00     0.038 A 
HETATM   27  C2  UNL     1      -2.894   3.766  -0.023  1.00  0.00    -0.035 A 
HETATM   28  C1  UNL     1      -2.311   3.952  -1.397  1.00  0.00     0.050 C 
HETATM   29  C3  UNL     1      -3.506   4.856   0.620  1.00  0.00     0.009 A 
HETATM   30  C4  UNL     1      -4.055   4.711   1.895  1.00  0.00     0.001 A 
HETATM   31  C5  UNL     1      -3.991   3.480   2.548  1.00  0.00     0.002 A 
HETATM   32  C6  UNL     1      -3.377   2.391   1.928  1.00  0.00     0.030 A 
ENDBRANCH  24  26
ENDBRANCH   1  24
BRANCH   4  33
HETATM   33  C12 UNL     1      -3.832  -4.108   0.631  1.00  0.00     0.010 C 
HETATM   34  C13 UNL     1      -3.368  -4.960  -0.557  1.00  0.00     0.015 C 
HETATM   35  C14 UNL     1      -3.352  -4.704   1.959  1.00  0.00     0.015 C 
ENDBRANCH   4  33
TORSDOF 5
