REMARK  6 active torsions:
REMARK  status: ('A' for Active; 'I' for Inactive)
REMARK    1  A    between atoms: C2_2  and  N1_3 
REMARK    2  A    between atoms: N1_3  and  C3_4 
REMARK    3  A    between atoms: N1_3  and  C20_25 
REMARK    4  A    between atoms: C3_4  and  C4_5 
REMARK    5  A    between atoms: C10_12  and  C18_21 
REMARK    6  A    between atoms: C23_29  and  N2_30 
ROOT
HETATM    1  C4  UNL     1       0.372  -0.001   1.211  1.00  0.00     0.004 A 
HETATM    2  C5  UNL     1       0.431  -0.988   2.205  1.00  0.00     0.012 A 
HETATM    3  C6  UNL     1      -0.635  -1.853   2.413  1.00  0.00     0.002 A 
HETATM    4  C7  UNL     1      -1.776  -1.755   1.627  1.00  0.00     0.015 A 
HETATM    5  C8  UNL     1      -1.887  -0.773   0.625  1.00  0.00     0.006 A 
HETATM    6  C9  UNL     1      -0.813   0.151   0.443  1.00  0.00     0.089 A 
HETATM    7  O1  UNL     1      -0.856   1.230  -0.462  1.00  0.00    -0.328 OA
HETATM    8  C10 UNL     1      -2.017   1.800  -1.059  1.00  0.00     0.263 C 
HETATM    9  S1  UNL     1      -3.356   1.943   0.187  1.00  0.00    -0.117 SA
HETATM   10  C11 UNL     1      -4.096   0.341  -0.265  1.00  0.00     0.106 C 
HETATM   11  C12 UNL     1      -3.116  -0.811  -0.220  1.00  0.00    -0.028 C 
HETATM   12  C13 UNL     1      -3.449  -1.976  -0.808  1.00  0.00     0.009 C 
HETATM   13  C14 UNL     1      -4.779  -2.280  -1.383  1.00  0.00     0.001 C 
HETATM   14  C15 UNL     1      -5.953  -1.865  -0.875  1.00  0.00    -0.000 C 
HETATM   15  C16 UNL     1      -6.117  -0.969   0.296  1.00  0.00    -0.003 C 
HETATM   16  C17 UNL     1      -5.276   0.026   0.600  1.00  0.00    -0.007 C 
ENDROOT
BRANCH   1  17
HETATM   17  C3  UNL     1       1.562   0.935   1.022  1.00  0.00     0.314 C 
BRANCH  17  18
HETATM   18  N1  UNL     1       2.645   0.401   0.145  1.00  0.00     0.101 N 
BRANCH  18  19
HETATM   19  C2  UNL     1       2.164   0.097  -1.227  1.00  0.00     0.269 C 
HETATM   20  C1  UNL     1       2.163   1.361  -2.081  1.00  0.00     0.037 C 
ENDBRANCH  18  19
BRANCH  18  21
HETATM   21  C20 UNL     1       3.445  -0.695   0.765  1.00  0.00     0.281 C 
HETATM   22  C21 UNL     1       4.112  -0.251   2.069  1.00  0.00     0.205 C 
HETATM   23  O2  UNL     1       5.294  -0.988   2.241  1.00  0.00    -0.387 OA
HETATM   24  C22 UNL     1       5.806  -1.212   0.953  1.00  0.00     0.205 C 
HETATM   25  C23 UNL     1       4.670  -1.086  -0.064  1.00  0.00     0.276 C 
BRANCH  25  26
HETATM   26  N2  UNL     1       4.444  -2.341  -0.788  1.00  0.00     0.087 N 
HETATM   27  H27 UNL     1       5.297  -2.551  -1.357  1.00  0.00     0.313 HD
HETATM   28  H28 UNL     1       4.323  -3.125  -0.106  1.00  0.00     0.313 HD
ENDBRANCH  25  26
ENDBRANCH  18  21
ENDBRANCH  17  18
ENDBRANCH   1  17
BRANCH   8  29
HETATM   29  C18 UNL     1      -1.678   3.177  -1.659  1.00  0.00     0.275 C 
HETATM   30  C19 UNL     1      -1.081   4.145  -0.634  1.00  0.00     0.093 C 
HETATM   31  F1  UNL     1      -0.768   3.006  -2.689  1.00  0.00    -0.203 F 
HETATM   32  F2  UNL     1      -2.827   3.738  -2.192  1.00  0.00    -0.203 F 
ENDBRANCH   8  29
TORSDOF 6
