REMARK  6 active torsions:
REMARK  status: ('A' for Active; 'I' for Inactive)
REMARK    1  A    between atoms: C2_2  and  C3_3 
REMARK    2  A    between atoms: N2_9  and  C7_10 
REMARK    3  A    between atoms: C7_10  and  C8_11 
REMARK    4  A    between atoms: C12_16  and  C13_17 
REMARK    5  A    between atoms: C18_22  and  O2_23 
REMARK    6  A    between atoms: O2_23  and  C19_24 
ROOT
HETATM    1  C8  UNL     1       1.205   0.553  -1.678  1.00  0.00    -0.011 A 
HETATM    2  C9  UNL     1       1.099   1.811  -2.294  1.00  0.00     0.012 A 
HETATM    3  C10 UNL     1       2.143   2.731  -2.211  1.00  0.00     0.020 A 
HETATM    4  C11 UNL     1       3.300   2.388  -1.517  1.00  0.00     0.117 A 
HETATM    5  N3  UNL     1       3.411   1.162  -0.946  1.00  0.00    -0.260 NA
HETATM    6  C12 UNL     1       2.416   0.233  -1.012  1.00  0.00     0.077 A 
ENDROOT
BRANCH   1   7
HETATM    7  C7  UNL     1       0.015  -0.385  -1.727  1.00  0.00     0.166 C 
BRANCH   7   8
HETATM    8  N2  UNL     1      -1.153   0.209  -1.054  1.00  0.00    -0.346 N 
HETATM    9  C6  UNL     1      -2.231   0.790  -1.868  1.00  0.00     0.135 C 
HETATM   10  C5  UNL     1      -2.570   2.205  -1.407  1.00  0.00     0.122 C 
HETATM   11  C4  UNL     1      -3.507   2.207  -0.236  1.00  0.00     0.219 C 
HETATM   12  N1  UNL     1      -3.150   1.618   1.021  1.00  0.00    -0.348 N 
HETATM   13  O1  UNL     1      -4.600   2.826  -0.332  1.00  0.00    -0.274 OA
HETATM   14  C3  UNL     1      -2.471   0.328   1.188  1.00  0.00     0.176 C 
HETATM   15  H7  UNL     1      -3.624   2.005   1.868  1.00  0.00     0.163 HD
HETATM   16  C20 UNL     1      -1.188   0.233   0.392  1.00  0.00     0.242 C 
HETATM   17  O3  UNL     1      -0.107   0.132   1.034  1.00  0.00    -0.271 OA
BRANCH  14  18
HETATM   18  C2  UNL     1      -3.422  -0.855   0.917  1.00  0.00     0.030 C 
HETATM   19  C1  UNL     1      -4.499  -0.979   1.995  1.00  0.00     0.007 C 
ENDBRANCH  14  18
ENDBRANCH   7   8
ENDBRANCH   1   7
BRANCH   6  20
HETATM   20  C13 UNL     1       2.662  -1.083  -0.388  1.00  0.00     0.027 A 
HETATM   21  C14 UNL     1       2.717  -2.234  -1.192  1.00  0.00     0.017 A 
HETATM   22  C15 UNL     1       2.976  -3.481  -0.620  1.00  0.00     0.001 A 
HETATM   23  C16 UNL     1       3.196  -3.588   0.753  1.00  0.00     0.003 A 
HETATM   24  C17 UNL     1       3.163  -2.448   1.560  1.00  0.00     0.038 A 
HETATM   25  C18 UNL     1       2.903  -1.183   0.997  1.00  0.00     0.087 A 
BRANCH  25  26
HETATM   26  O2  UNL     1       2.864  -0.014   1.776  1.00  0.00    -0.289 OA
BRANCH  26  27
HETATM   27  C19 UNL     1       3.091   0.038   3.182  1.00  0.00     0.505 C 
HETATM   28  F1  UNL     1       4.397  -0.321   3.462  1.00  0.00    -0.184 F 
HETATM   29  F2  UNL     1       2.875   1.328   3.626  1.00  0.00    -0.184 F 
ENDBRANCH  26  27
ENDBRANCH  25  26
ENDBRANCH   6  20
TORSDOF 6
