REMARK  3 active torsions:
REMARK  status: ('A' for Active; 'I' for Inactive)
REMARK    1  A    between atoms: N1_6  and  C3_7 
REMARK    2  A    between atoms: C3_7  and  C4_8 
REMARK    3  A    between atoms: C6_11  and  C7_12 
ROOT
HETATM    1  O1  UNL     1      -5.047   2.590  -1.314  1.00  0.00    -0.223 OA
HETATM    2  S1  UNL     1      -3.836   1.758  -1.631  1.00  0.00     0.177 S 
HETATM    3  O2  UNL     1      -3.808   1.475  -3.106  1.00  0.00    -0.223 OA
HETATM    4  C1  UNL     1      -2.381   2.704  -1.177  1.00  0.00     0.176 C 
HETATM    5  C2  UNL     1      -1.757   2.202   0.134  1.00  0.00     0.288 C 
HETATM    6  N1  UNL     1      -0.838   1.055  -0.062  1.00  0.00     0.099 N 
HETATM    7  C13 UNL     1      -1.393  -0.047  -0.890  1.00  0.00     0.313 C 
HETATM    8  C14 UNL     1      -2.762  -0.513  -0.439  1.00  0.00    -0.009 A 
HETATM    9  C15 UNL     1      -2.877  -1.705   0.297  1.00  0.00     0.010 A 
HETATM   10  C16 UNL     1      -4.129  -2.164   0.709  1.00  0.00     0.001 A 
HETATM   11  C17 UNL     1      -5.279  -1.441   0.391  1.00  0.00     0.002 A 
HETATM   12  C18 UNL     1      -5.179  -0.252  -0.335  1.00  0.00     0.024 A 
HETATM   13  C19 UNL     1      -3.927   0.226  -0.748  1.00  0.00     0.067 A 
ENDROOT
BRANCH   6  14
HETATM   14  C3  UNL     1      -0.340   0.572   1.244  1.00  0.00     0.339 C 
BRANCH  14  15
HETATM   15  C4  UNL     1       0.919  -0.219   1.070  1.00  0.00     0.101 A 
HETATM   16  C5  UNL     1       1.126  -1.530   1.430  1.00  0.00     0.154 A 
HETATM   17  N2  UNL     1       2.385  -1.874   1.099  1.00  0.00    -0.234 NA
HETATM   18  C6  UNL     1       2.890  -0.746   0.550  1.00  0.00     0.179 A 
HETATM   19  O3  UNL     1       2.020   0.240   0.532  1.00  0.00    -0.292 OA
BRANCH  18  20
HETATM   20  C7  UNL     1       4.266  -0.632   0.026  1.00  0.00     0.017 A 
HETATM   21  C8  UNL     1       4.710   0.579  -0.534  1.00  0.00     0.016 A 
HETATM   22  C9  UNL     1       6.012   0.691  -1.031  1.00  0.00     0.001 A 
HETATM   23  C10 UNL     1       6.881  -0.402  -0.975  1.00  0.00     0.000 A 
HETATM   24  C11 UNL     1       6.448  -1.610  -0.421  1.00  0.00     0.001 A 
HETATM   25  C12 UNL     1       5.147  -1.727   0.078  1.00  0.00     0.016 A 
ENDBRANCH  18  20
ENDBRANCH  14  15
ENDBRANCH   6  14
TORSDOF 3
