REMARK  2 active torsions:
REMARK  status: ('A' for Active; 'I' for Inactive)
REMARK    1  A    between atoms: C1_2  and  C2_3 
REMARK    2  A    between atoms: C1_2  and  C22_23 
ROOT
HETATM    1  C2  UNL     1      -0.772   1.244   0.318  1.00  0.00     0.015 A 
HETATM    2  C3  UNL     1      -0.762   0.099  -0.494  1.00  0.00     0.016 A 
HETATM    3  C4  UNL     1      -1.749  -0.877  -0.352  1.00  0.00     0.014 A 
HETATM    4  C5  UNL     1      -2.767  -0.725   0.599  1.00  0.00    -0.019 A 
HETATM    5  C6  UNL     1      -2.783   0.418   1.431  1.00  0.00    -0.046 A 
HETATM    6  C7  UNL     1      -1.795   1.403   1.266  1.00  0.00     0.023 A 
HETATM    7  C8  UNL     1      -3.826   0.579   2.519  1.00  0.00     0.044 C 
HETATM    8  C9  UNL     1      -5.241   0.978   2.035  1.00  0.00     0.044 C 
HETATM    9  C10 UNL     1      -5.417   1.102   0.533  1.00  0.00    -0.047 A 
HETATM   10  C11 UNL     1      -5.574   2.377  -0.040  1.00  0.00     0.008 A 
HETATM   11  C12 UNL     1      -5.796   2.516  -1.411  1.00  0.00     0.001 A 
HETATM   12  C13 UNL     1      -5.870   1.386  -2.227  1.00  0.00     0.001 A 
HETATM   13  C14 UNL     1      -5.702   0.114  -1.677  1.00  0.00     0.013 A 
HETATM   14  C15 UNL     1      -5.463  -0.040  -0.302  1.00  0.00    -0.019 A 
HETATM   15  C16 UNL     1      -5.162  -1.392   0.221  1.00  0.00    -0.014 A 
HETATM   16  C17 UNL     1      -6.164  -2.373   0.227  1.00  0.00     0.013 A 
HETATM   17  C18 UNL     1      -5.879  -3.669   0.668  1.00  0.00     0.001 A 
HETATM   18  C19 UNL     1      -4.590  -3.997   1.095  1.00  0.00     0.001 A 
HETATM   19  C20 UNL     1      -3.579  -3.032   1.079  1.00  0.00     0.013 A 
HETATM   20  C21 UNL     1      -3.856  -1.725   0.649  1.00  0.00    -0.014 A 
ENDROOT
BRANCH   1  21
HETATM   21  C1  UNL     1       0.268   2.291   0.166  1.00  0.00     0.192 C 
HETATM   22  O1  UNL     1      -0.053   3.498   0.353  1.00  0.00    -0.287 OA
BRANCH  21  23
HETATM   23  C22 UNL     1       1.674   1.968  -0.187  1.00  0.00     0.016 C 
HETATM   24  C23 UNL     1       2.267   0.771   0.231  1.00  0.00     0.028 C 
HETATM   25  C24 UNL     1       3.609   0.444  -0.101  1.00  0.00    -0.013 C 
HETATM   26  C25 UNL     1       4.406   1.428  -0.753  1.00  0.00    -0.014 C 
HETATM   27  C39 UNL     1       4.165  -0.830   0.210  1.00  0.00    -0.014 A 
HETATM   28  C26 UNL     1       3.774   2.623  -1.185  1.00  0.00     0.014 C 
HETATM   29  C28 UNL     1       5.804   1.204  -0.933  1.00  0.00    -0.014 A 
HETATM   30  C27 UNL     1       2.435   2.881  -0.909  1.00  0.00     0.016 C 
HETATM   31  C29 UNL     1       6.659   2.202  -1.478  1.00  0.00     0.013 A 
HETATM   32  C33 UNL     1       6.387  -0.033  -0.516  1.00  0.00    -0.014 A 
HETATM   33  C30 UNL     1       8.028   1.996  -1.605  1.00  0.00     0.001 A 
HETATM   34  C31 UNL     1       8.595   0.810  -1.177  1.00  0.00     0.001 A 
HETATM   35  C32 UNL     1       7.795  -0.189  -0.635  1.00  0.00     0.013 A 
HETATM   36  C34 UNL     1       5.557  -1.069   0.005  1.00  0.00    -0.014 A 
HETATM   37  C35 UNL     1       6.071  -2.360   0.310  1.00  0.00     0.013 A 
HETATM   38  C36 UNL     1       5.252  -3.371   0.802  1.00  0.00     0.001 A 
HETATM   39  C37 UNL     1       3.898  -3.144   0.978  1.00  0.00     0.001 A 
HETATM   40  C38 UNL     1       3.354  -1.901   0.676  1.00  0.00     0.013 A 
ENDBRANCH  21  23
ENDBRANCH   1  21
TORSDOF 2
