REMARK  3 active torsions:
REMARK  status: ('A' for Active; 'I' for Inactive)
REMARK    1  A    between atoms: C5_5  and  C6_6 
REMARK    2  A    between atoms: C6_6  and  C7_8 
REMARK    3  A    between atoms: C22_26  and  C23_27 
ROOT
HETATM    1  C7  UNL     1       0.036  -0.572   0.825  1.00  0.00     0.016 A 
HETATM    2  C8  UNL     1       0.016   0.543  -0.013  1.00  0.00     0.016 A 
HETATM    3  C9  UNL     1       1.193   1.201  -0.337  1.00  0.00     0.014 A 
HETATM    4  C10 UNL     1       2.441   0.767   0.148  1.00  0.00    -0.011 A 
HETATM    5  C11 UNL     1       2.493  -0.410   0.975  1.00  0.00     0.023 A 
HETATM    6  C12 UNL     1       1.266  -1.047   1.300  1.00  0.00     0.031 A 
HETATM    7  C13 UNL     1       3.743  -1.008   1.557  1.00  0.00     0.177 C 
HETATM    8  O2  UNL     1       3.667  -2.051   2.260  1.00  0.00    -0.290 OA
HETATM    9  C14 UNL     1       5.119  -0.503   1.279  1.00  0.00     0.206 C 
HETATM   10  N1  UNL     1       5.497  -0.876  -0.079  1.00  0.00    -0.350 N 
HETATM   11  C15 UNL     1       5.032  -0.143  -1.209  1.00  0.00     0.252 C 
HETATM   12  O3  UNL     1       5.220  -0.603  -2.367  1.00  0.00    -0.268 OA
HETATM   13  C16 UNL     1       4.659   1.264  -1.037  1.00  0.00     0.043 A 
HETATM   14  C17 UNL     1       5.555   2.224  -1.532  1.00  0.00     0.018 A 
HETATM   15  C18 UNL     1       5.400   3.572  -1.211  1.00  0.00     0.001 A 
HETATM   16  C19 UNL     1       4.356   3.982  -0.386  1.00  0.00     0.001 A 
HETATM   17  C20 UNL     1       3.442   3.041   0.093  1.00  0.00     0.013 A 
HETATM   18  C21 UNL     1       3.580   1.666  -0.211  1.00  0.00    -0.009 A 
HETATM   19  H11 UNL     1       6.098  -1.717  -0.219  1.00  0.00     0.163 HD
ENDROOT
BRANCH   1  20
HETATM   20  C6  UNL     1      -1.240  -1.237   1.202  1.00  0.00     0.193 C 
HETATM   21  O1  UNL     1      -1.246  -2.450   1.536  1.00  0.00    -0.287 OA
BRANCH  20  22
HETATM   22  C5  UNL     1      -2.505  -0.473   1.228  1.00  0.00     0.026 A 
HETATM   23  C4  UNL     1      -2.593   0.609   2.120  1.00  0.00     0.017 A 
HETATM   24  C3  UNL     1      -3.757   1.368   2.206  1.00  0.00     0.007 A 
HETATM   25  C2  UNL     1      -4.862   1.057   1.409  1.00  0.00    -0.061 A 
HETATM   26  C1  UNL     1      -6.109   1.886   1.484  1.00  0.00     0.048 C 
HETATM   27  C29 UNL     1      -4.778   0.002   0.492  1.00  0.00     0.020 A 
HETATM   28  C22 UNL     1      -3.611  -0.784   0.389  1.00  0.00    -0.011 A 
BRANCH  28  29
HETATM   29  C23 UNL     1      -3.581  -1.887  -0.619  1.00  0.00    -0.025 A 
HETATM   30  C24 UNL     1      -2.470  -2.079  -1.463  1.00  0.00     0.012 A 
HETATM   31  C25 UNL     1      -2.463  -3.112  -2.405  1.00  0.00     0.001 A 
HETATM   32  C26 UNL     1      -3.583  -3.929  -2.560  1.00  0.00     0.000 A 
HETATM   33  C27 UNL     1      -4.705  -3.725  -1.760  1.00  0.00     0.001 A 
HETATM   34  C28 UNL     1      -4.704  -2.716  -0.793  1.00  0.00     0.012 A 
ENDBRANCH  28  29
ENDBRANCH  20  22
ENDBRANCH   1  20
TORSDOF 3
