REMARK  7 active torsions:
REMARK  status: ('A' for Active; 'I' for Inactive)
REMARK    1  A    between atoms: C2_2  and  O1_3 
REMARK    2  A    between atoms: O1_3  and  C3_4 
REMARK    3  A    between atoms: C5_6  and  C6_7 
REMARK       I    between atoms: C6_7  and  N1_9 
REMARK    4  A    between atoms: C10_13  and  N2_14 
REMARK    5  A    between atoms: N2_14  and  C11_15 
REMARK       I    between atoms: N2_14  and  C16_20 
REMARK    6  A    between atoms: C11_15  and  C12_16 
REMARK    7  A    between atoms: C16_20  and  C17_22 
ROOT
HETATM    1  C6  UNL     1       2.427  -0.934  -1.490  1.00  0.00     0.226 C 
HETATM    2  O2  UNL     1       2.077  -1.865  -2.269  1.00  0.00    -0.273 OA
HETATM    3  N1  UNL     1       1.675   0.302  -1.459  1.00  0.00    -0.352 N 
HETATM    4  C7  UNL     1       1.895   1.264  -0.360  1.00  0.00     0.126 C 
HETATM    5  C8  UNL     1       0.741   2.264  -0.167  1.00  0.00     0.022 C 
HETATM    6  C9  UNL     1      -0.584   1.614   0.277  1.00  0.00     0.027 C 
HETATM    7  C10 UNL     1      -0.926   0.256  -0.389  1.00  0.00     0.088 C 
HETATM    8  C20 UNL     1      -0.790   0.262  -1.934  1.00  0.00     0.045 C 
HETATM    9  C21 UNL     1       0.631   0.543  -2.472  1.00  0.00     0.127 C 
ENDROOT
BRANCH   7  10
HETATM   10  N2  UNL     1      -2.276  -0.198   0.013  1.00  0.00    -0.347 N 
HETATM   11  C16 UNL     1      -2.441  -1.564   0.440  1.00  0.00     0.224 C 
HETATM   12  O3  UNL     1      -2.875  -1.812   1.596  1.00  0.00    -0.273 OA
BRANCH  10  13
HETATM   13  C11 UNL     1      -3.479   0.597  -0.299  1.00  0.00     0.130 C 
BRANCH  13  14
HETATM   14  C12 UNL     1      -4.181   1.237   0.928  1.00  0.00     0.004 A 
HETATM   15  C13 UNL     1      -5.276   0.385   1.566  1.00  0.00     0.006 A 
HETATM   16  C14 UNL     1      -4.589   0.518   2.919  1.00  0.00     0.001 A 
HETATM   17  C15 UNL     1      -3.447   1.290   2.271  1.00  0.00     0.006 A 
ENDBRANCH  13  14
ENDBRANCH  10  13
BRANCH  11  18
HETATM   18  C17 UNL     1      -1.994  -2.697  -0.438  1.00  0.00     0.078 A 
HETATM   19  C18 UNL     1      -2.962  -3.869  -0.532  1.00  0.00     0.015 A 
HETATM   20  C19 UNL     1      -2.837  -2.891  -1.688  1.00  0.00     0.015 A 
ENDBRANCH  11  18
ENDBRANCH   7  10
BRANCH   1  21
HETATM   21  C5  UNL     1       3.592  -1.178  -0.565  1.00  0.00     0.109 A 
HETATM   22  C3  UNL     1       4.813  -0.295  -0.794  1.00  0.00     0.135 A 
HETATM   23  C4  UNL     1       4.824  -1.737  -1.270  1.00  0.00     0.049 A 
BRANCH  22  24
HETATM   24  O1  UNL     1       5.632  -0.126   0.339  1.00  0.00    -0.385 OA
BRANCH  24  25
HETATM   25  C2  UNL     1       5.314   1.106   0.948  1.00  0.00     0.163 C 
HETATM   26  C1  UNL     1       6.261   1.340   2.118  1.00  0.00     0.033 C 
ENDBRANCH  24  25
ENDBRANCH  22  24
ENDBRANCH   1  21
TORSDOF 7
