REMARK  3 active torsions:
REMARK  status: ('A' for Active; 'I' for Inactive)
REMARK    1  A    between atoms: C2_2  and  C3_4 
REMARK    2  A    between atoms: N1_13  and  S1_14 
REMARK    3  A    between atoms: S1_14  and  N2_17 
ROOT
HETATM    1  C3  UNL     1      -1.216   1.775   0.793  1.00  0.00     0.031 C 
HETATM    2  C4  UNL     1      -2.458   1.773   1.360  1.00  0.00     0.010 C 
HETATM    3  C5  UNL     1      -3.263   0.523   1.304  1.00  0.00     0.062 C 
HETATM    4  C6  UNL     1      -3.181  -0.216   2.430  1.00  0.00     0.028 C 
HETATM    5 CL1  UNL     1      -3.705   0.457   3.966  1.00  0.00    -0.088 Cl
HETATM    6  C7  UNL     1      -2.136  -1.283   2.463  1.00  0.00     0.018 C 
HETATM    7  C8  UNL     1      -1.287  -1.411   1.422  1.00  0.00    -0.005 C 
HETATM    8  C9  UNL     1      -1.501  -0.570   0.212  1.00  0.00     0.068 C 
HETATM    9  C10 UNL     1      -0.733   0.526   0.067  1.00  0.00     0.053 C 
HETATM   10  N1  UNL     1      -0.257   0.704  -1.270  1.00  0.00    -0.263 N 
HETATM   11  C15 UNL     1      -1.218   1.157  -2.286  1.00  0.00     0.168 C 
HETATM   12  C16 UNL     1      -2.505   0.305  -2.252  1.00  0.00     0.189 C 
HETATM   13  O4  UNL     1      -3.269   0.604  -1.093  1.00  0.00    -0.381 OA
HETATM   14  C17 UNL     1      -2.972  -0.238   0.024  1.00  0.00     0.160 C 
ENDROOT
BRANCH  10  15
HETATM   15  S1  UNL     1       1.186  -0.131  -1.771  1.00  0.00     0.305 S 
HETATM   16  O2  UNL     1       2.280   0.868  -2.029  1.00  0.00    -0.188 OA
HETATM   17  O3  UNL     1       0.898  -0.878  -3.044  1.00  0.00    -0.188 OA
BRANCH  15  18
HETATM   18  N2  UNL     1       1.675  -1.286  -0.550  1.00  0.00    -0.190 NA
HETATM   19  C11 UNL     1       2.351  -0.651   0.581  1.00  0.00     0.111 C 
HETATM   20  C12 UNL     1       3.249  -1.712   1.196  1.00  0.00     0.054 C 
HETATM   21  C13 UNL     1       3.452  -2.749   0.100  1.00  0.00     0.185 C 
HETATM   22  F1  UNL     1       2.970  -3.981   0.511  1.00  0.00    -0.248 F 
HETATM   23  C14 UNL     1       2.646  -2.239  -1.086  1.00  0.00     0.146 C 
ENDBRANCH  15  18
ENDBRANCH  10  15
BRANCH   1  24
HETATM   24  C2  UNL     1      -0.385   3.007   0.843  1.00  0.00     0.157 C 
HETATM   25  C1  UNL     1       1.026   3.027   0.345  1.00  0.00     0.097 C 
HETATM   26  O1  UNL     1      -0.875   4.079   1.293  1.00  0.00    -0.293 OA
ENDBRANCH   1  24
TORSDOF 3
