REMARK  5 active torsions:
REMARK  status: ('A' for Active; 'I' for Inactive)
REMARK       I    between atoms: C1_2  and  N1_3 
REMARK       I    between atoms: C1_2  and  N4_15 
REMARK    1  A    between atoms: N1_3  and  C2_4 
REMARK    2  A    between atoms: C2_4  and  C3_5 
REMARK    3  A    between atoms: N3_9  and  C6_10 
REMARK    4  A    between atoms: C6_10  and  C7_11 
REMARK    5  A    between atoms: N4_15  and  C11_16 
ROOT
HETATM    1  O1  UNL     1      -0.241   0.725   0.498  1.00  0.00    -0.247 OA
HETATM    2  C1  UNL     1      -0.179  -0.515   0.723  1.00  0.00     0.321 C 
HETATM    3  N1  UNL     1      -1.382  -1.268   0.923  1.00  0.00    -0.337 N 
HETATM    4  N4  UNL     1       1.094  -1.173   0.813  1.00  0.00    -0.306 N 
HETATM    5  H1  UNL     1      -1.312  -2.286   1.146  1.00  0.00     0.164 HD
HETATM    6  H15 UNL     1       1.121  -2.115   1.265  1.00  0.00     0.171 HD
ENDROOT
BRANCH   3   7
HETATM    7  C2  UNL     1      -2.710  -0.662   0.832  1.00  0.00     0.183 C 
BRANCH   7   8
HETATM    8  C3  UNL     1      -3.073  -0.338  -0.595  1.00  0.00     0.049 A 
HETATM    9  C4  UNL     1      -2.457  -0.838  -1.729  1.00  0.00     0.049 A 
HETATM   10  C5  UNL     1      -3.162  -0.292  -2.781  1.00  0.00     0.141 A 
HETATM   11  N2  UNL     1      -4.159   0.479  -2.307  1.00  0.00    -0.185 NA
HETATM   12  N3  UNL     1      -4.108   0.441  -0.984  1.00  0.00    -0.272 N 
BRANCH  12  13
HETATM   13  C6  UNL     1      -5.073   1.143  -0.134  1.00  0.00     0.155 C 
BRANCH  13  14
HETATM   14  C7  UNL     1      -6.493   0.611  -0.384  1.00  0.00     0.005 A 
HETATM   15  C8  UNL     1      -6.739  -0.792   0.169  1.00  0.00     0.006 A 
HETATM   16  C9  UNL     1      -7.777  -0.230   1.131  1.00  0.00     0.001 A 
HETATM   17  C10 UNL     1      -7.533   1.170   0.585  1.00  0.00     0.006 A 
ENDBRANCH  13  14
ENDBRANCH  12  13
ENDBRANCH   7   8
ENDBRANCH   3   7
BRANCH   4  18
HETATM   18  C11 UNL     1       2.336  -0.578   0.399  1.00  0.00     0.075 A 
HETATM   19  C12 UNL     1       2.398   0.247  -0.730  1.00  0.00     0.033 A 
HETATM   20  C13 UNL     1       3.607   0.811  -1.126  1.00  0.00     0.010 A 
HETATM   21  C14 UNL     1       4.793   0.565  -0.413  1.00  0.00    -0.047 A 
HETATM   22  C15 UNL     1       4.759  -0.335   0.695  1.00  0.00    -0.009 A 
HETATM   23  C20 UNL     1       6.059   1.216  -0.941  1.00  0.00     0.069 C 
HETATM   24  C16 UNL     1       3.515  -0.873   1.097  1.00  0.00     0.149 A 
HETATM   25  C17 UNL     1       5.981  -0.678   1.534  1.00  0.00     0.072 C 
HETATM   26  F1  UNL     1       3.442  -1.676   2.192  1.00  0.00    -0.203 F 
HETATM   27  C18 UNL     1       7.282  -0.776   0.728  1.00  0.00     0.274 C 
HETATM   28  N5  UNL     1       7.945   0.527   0.563  1.00  0.00     0.084 N 
HETATM   29  C19 UNL     1       7.048   1.623   0.160  1.00  0.00     0.274 C 
HETATM   30  H22 UNL     1       8.683   0.418  -0.172  1.00  0.00     0.315 HD
ENDBRANCH   4  18
TORSDOF 5
