REMARK  5 active torsions:
REMARK  status: ('A' for Active; 'I' for Inactive)
REMARK    1  A    between atoms: C8_8  and  C9_9 
REMARK    2  A    between atoms: C9_9  and  C10_10 
REMARK    3  A    between atoms: C10_10  and  N1_11 
REMARK    4  A    between atoms: N1_11  and  C11_12 
REMARK    5  A    between atoms: C12_14  and  C13_15 
ROOT
HETATM    1  N1  UNL     1      -0.036  -0.032  -1.258  1.00  0.00    -0.225 N 
HETATM    2  H11 UNL     1       0.720  -0.524  -1.786  1.00  0.00     0.177 HD
ENDROOT
BRANCH   1   3
HETATM    3  C10 UNL     1       0.258   1.229  -0.573  1.00  0.00     0.142 C 
BRANCH   3   4
HETATM    4  C9  UNL     1       1.745   1.596  -0.682  1.00  0.00     0.061 C 
BRANCH   4   5
HETATM    5  C8  UNL     1       2.678   0.611  -0.014  1.00  0.00    -0.028 A 
HETATM    6  C7  UNL     1       4.073   0.575  -0.082  1.00  0.00     0.004 A 
HETATM    7  C2  UNL     1       5.021   1.368  -0.765  1.00  0.00    -0.049 A 
HETATM    8  C6  UNL     1       4.473  -0.470   0.726  1.00  0.00     0.045 A 
HETATM    9  C1  UNL     1       4.636   2.516  -1.655  1.00  0.00     0.049 C 
HETATM   10  C3  UNL     1       6.385   1.037  -0.605  1.00  0.00     0.007 A 
HETATM   11  C4  UNL     1       6.778  -0.034   0.220  1.00  0.00     0.003 A 
HETATM   12  C5  UNL     1       5.819  -0.798   0.898  1.00  0.00     0.030 A 
HETATM   13  N4  UNL     1       3.413  -1.074   1.294  1.00  0.00    -0.360 N 
HETATM   14  C22 UNL     1       2.317  -0.417   0.860  1.00  0.00     0.098 A 
HETATM   15  C23 UNL     1       3.430  -2.198   2.225  1.00  0.00     0.155 C 
ENDBRANCH   4   5
ENDBRANCH   3   4
ENDBRANCH   1   3
BRANCH   1  16
HETATM   16  C11 UNL     1      -1.334  -0.640  -1.202  1.00  0.00     0.692 C 
HETATM   17  N2  UNL     1      -2.286  -0.042  -0.540  1.00  0.00    -0.098 NA
HETATM   18  C12 UNL     1      -3.678  -0.473  -0.419  1.00  0.00     0.160 C 
HETATM   19  C19 UNL     1      -3.806  -1.773   0.406  1.00  0.00     0.034 C 
HETATM   20  C20 UNL     1      -2.840  -2.894  -0.014  1.00  0.00     0.022 C 
HETATM   21  C21 UNL     1      -2.547  -2.901  -1.518  1.00  0.00     0.138 C 
HETATM   22  N3  UNL     1      -1.535  -1.902  -1.873  1.00  0.00    -0.225 N 
HETATM   23  H24 UNL     1      -0.785  -2.216  -2.529  1.00  0.00     0.177 HD
BRANCH  18  24
HETATM   24  C13 UNL     1      -4.491   0.627   0.228  1.00  0.00    -0.033 A 
HETATM   25  C14 UNL     1      -4.018   1.292   1.376  1.00  0.00     0.009 A 
HETATM   26  C15 UNL     1      -4.789   2.287   1.984  1.00  0.00     0.001 A 
HETATM   27  C16 UNL     1      -6.040   2.622   1.461  1.00  0.00     0.000 A 
HETATM   28  C17 UNL     1      -6.526   1.958   0.332  1.00  0.00     0.001 A 
HETATM   29  C18 UNL     1      -5.759   0.961  -0.280  1.00  0.00     0.009 A 
ENDBRANCH  18  24
ENDBRANCH   1  16
TORSDOF 5
