REMARK  2 active torsions:
REMARK  status: ('A' for Active; 'I' for Inactive)
REMARK       I    between atoms: C1_2  and  N1_3 
REMARK    1  A    between atoms: C1_2  and  C22_25 
REMARK    2  A    between atoms: N1_3  and  C2_4 
ROOT
HETATM    1  C22 UNL     1      -0.670   2.022   0.133  1.00  0.00     0.033 C 
HETATM    2  C23 UNL     1      -1.487   3.132   0.119  1.00  0.00     0.018 C 
HETATM    3  C24 UNL     1      -2.864   2.978  -0.084  1.00  0.00     0.014 C 
HETATM    4  C25 UNL     1      -3.443   1.708  -0.223  1.00  0.00    -0.018 C 
HETATM    5  C26 UNL     1      -2.640   0.566   0.003  1.00  0.00    -0.042 C 
HETATM    6  C27 UNL     1      -1.255   0.756   0.153  1.00  0.00     0.025 C 
HETATM    7  C28 UNL     1      -3.193  -0.785   0.444  1.00  0.00     0.078 C 
HETATM    8  C29 UNL     1      -4.323  -1.405  -0.352  1.00  0.00    -0.043 A 
HETATM    9  C30 UNL     1      -4.027  -2.251  -1.444  1.00  0.00     0.008 A 
HETATM   10  C31 UNL     1      -5.057  -2.972  -2.098  1.00  0.00     0.001 A 
HETATM   11  C32 UNL     1      -6.359  -2.906  -1.609  1.00  0.00     0.001 A 
HETATM   12  C33 UNL     1      -6.657  -2.095  -0.506  1.00  0.00     0.013 A 
HETATM   13  C34 UNL     1      -5.656  -1.343   0.102  1.00  0.00    -0.018 A 
HETATM   14  C35 UNL     1      -6.065  -0.361   1.123  1.00  0.00    -0.014 A 
HETATM   15  C36 UNL     1      -6.430  -0.761   2.425  1.00  0.00     0.013 A 
HETATM   16  C37 UNL     1      -6.845   0.184   3.367  1.00  0.00     0.001 A 
HETATM   17  C38 UNL     1      -6.975   1.526   2.997  1.00  0.00     0.001 A 
HETATM   18  C39 UNL     1      -6.658   1.914   1.701  1.00  0.00     0.013 A 
HETATM   19  C40 UNL     1      -6.175   0.991   0.773  1.00  0.00    -0.014 A 
HETATM   20  C41 UNL     1      -5.930   1.415  -0.622  1.00  0.00    -0.014 A 
HETATM   21  C42 UNL     1      -6.997   1.386  -1.534  1.00  0.00     0.013 A 
HETATM   22  C43 UNL     1      -6.786   1.633  -2.898  1.00  0.00     0.001 A 
HETATM   23  C44 UNL     1      -5.501   1.948  -3.332  1.00  0.00     0.001 A 
HETATM   24  C45 UNL     1      -4.443   1.966  -2.443  1.00  0.00     0.013 A 
HETATM   25  C46 UNL     1      -4.630   1.653  -1.098  1.00  0.00    -0.014 A 
ENDROOT
BRANCH   1  26
HETATM   26  C1  UNL     1       0.799   2.166   0.218  1.00  0.00     0.256 C 
HETATM   27  O1  UNL     1       1.382   3.132  -0.364  1.00  0.00    -0.267 OA
HETATM   28  N1  UNL     1       1.557   1.253   1.028  1.00  0.00    -0.323 N 
HETATM   29  H1  UNL     1       1.423   1.304   2.065  1.00  0.00     0.169 HD
BRANCH  28  30
HETATM   30  C2  UNL     1       2.422   0.257   0.481  1.00  0.00     0.035 C 
HETATM   31  C3  UNL     1       2.507  -0.966   1.132  1.00  0.00     0.030 C 
HETATM   32  C4  UNL     1       3.497  -1.877   0.796  1.00  0.00     0.015 C 
HETATM   33  C5  UNL     1       4.476  -1.534  -0.160  1.00  0.00    -0.011 C 
HETATM   34  C6  UNL     1       4.305  -0.360  -0.929  1.00  0.00     0.023 C 
HETATM   35  C21 UNL     1       5.780  -2.219  -0.047  1.00  0.00    -0.014 C 
HETATM   36  C7  UNL     1       3.270   0.514  -0.605  1.00  0.00     0.045 C 
HETATM   37  C8  UNL     1       5.268   0.085  -1.941  1.00  0.00     0.164 C 
HETATM   38  O2  UNL     1       4.885   0.221  -3.129  1.00  0.00    -0.292 OA
HETATM   39  C9  UNL     1       6.712   0.319  -1.605  1.00  0.00     0.123 C 
HETATM   40  C10 UNL     1       6.890   0.756  -0.182  1.00  0.00    -0.040 A 
HETATM   41  C11 UNL     1       6.966   2.133   0.083  1.00  0.00     0.008 A 
HETATM   42  C15 UNL     1       6.887  -0.152   0.903  1.00  0.00    -0.018 A 
HETATM   43  C12 UNL     1       7.035   2.598   1.391  1.00  0.00     0.001 A 
HETATM   44  C13 UNL     1       7.103   1.703   2.455  1.00  0.00     0.001 A 
HETATM   45  C14 UNL     1       7.012   0.334   2.222  1.00  0.00     0.013 A 
HETATM   46  C16 UNL     1       6.825  -1.620   0.689  1.00  0.00    -0.014 C 
HETATM   47  C17 UNL     1       7.901  -2.412   1.104  1.00  0.00     0.013 C 
HETATM   48  C18 UNL     1       7.973  -3.755   0.762  1.00  0.00     0.001 C 
HETATM   49  C19 UNL     1       7.030  -4.303  -0.099  1.00  0.00     0.001 C 
HETATM   50  C20 UNL     1       5.902  -3.555  -0.468  1.00  0.00     0.013 C 
ENDBRANCH  28  30
ENDBRANCH   1  26
TORSDOF 2
