REMARK  2 active torsions:
REMARK  status: ('A' for Active; 'I' for Inactive)
REMARK    1  A    between atoms: N1_9  and  C9_10 
REMARK    2  A    between atoms: C12_13  and  C13_14 
ROOT
HETATM    1  C9  UNL     1       0.461  -0.334  -0.549  1.00  0.00     0.069 A 
HETATM    2  C10 UNL     1       1.284   0.508  -1.313  1.00  0.00     0.033 A 
HETATM    3  C11 UNL     1       2.622   0.699  -0.963  1.00  0.00     0.014 A 
HETATM    4  C12 UNL     1       3.171   0.050   0.156  1.00  0.00    -0.023 A 
HETATM    5  C19 UNL     1       2.347  -0.800   0.915  1.00  0.00     0.057 A 
HETATM    6  C20 UNL     1       1.006  -0.988   0.571  1.00  0.00     0.143 A 
HETATM    7  F1  UNL     1       0.238  -1.795   1.345  1.00  0.00    -0.204 F 
ENDROOT
BRANCH   1   8
HETATM    8  N1  UNL     1      -0.915  -0.534  -0.927  1.00  0.00    -0.372 N 
HETATM    9  C8  UNL     1      -1.750   0.625  -1.281  1.00  0.00     0.164 C 
HETATM   10  C6  UNL     1      -3.066   0.576  -0.551  1.00  0.00    -0.013 A 
HETATM   11  C5  UNL     1      -4.032  -0.424  -0.828  1.00  0.00     0.036 A 
HETATM   12  C7  UNL     1      -3.354   1.568   0.405  1.00  0.00     0.017 A 
HETATM   13  C4  UNL     1      -5.273  -0.370  -0.178  1.00  0.00     0.030 A 
HETATM   14  N2  UNL     1      -3.794  -1.504  -1.755  1.00  0.00    -0.388 N 
HETATM   15  C3  UNL     1      -5.551   0.626   0.759  1.00  0.00     0.009 A 
HETATM   16  C2  UNL     1      -4.585   1.587   1.072  1.00  0.00    -0.061 A 
HETATM   17  C1  UNL     1      -4.894   2.674   2.056  1.00  0.00     0.048 C 
HETATM   18  C22 UNL     1      -2.488  -2.037  -2.146  1.00  0.00     0.139 C 
HETATM   19  H20 UNL     1      -4.622  -2.026  -2.116  1.00  0.00     0.159 HD
HETATM   20  C21 UNL     1      -1.443  -1.905  -1.030  1.00  0.00     0.143 C 
ENDBRANCH   1   8
BRANCH   4  21
HETATM   21  C13 UNL     1       4.592   0.267   0.537  1.00  0.00    -0.024 A 
HETATM   22  C14 UNL     1       4.965   0.335   1.893  1.00  0.00     0.012 A 
HETATM   23  C15 UNL     1       6.300   0.538   2.252  1.00  0.00     0.003 A 
HETATM   24  C16 UNL     1       7.279   0.681   1.268  1.00  0.00     0.024 A 
HETATM   25  C17 UNL     1       6.925   0.622  -0.078  1.00  0.00     0.034 A 
HETATM   26 CL1  UNL     1       8.156   0.807  -1.306  1.00  0.00    -0.084 Cl
HETATM   27  C18 UNL     1       5.589   0.418  -0.450  1.00  0.00     0.036 A 
ENDBRANCH   4  21
TORSDOF 2
