REMARK  2 active torsions:
REMARK  status: ('A' for Active; 'I' for Inactive)
REMARK       I    between atoms: C1_2  and  N1_3 
REMARK       I    between atoms: C1_2  and  N2_18 
REMARK    1  A    between atoms: N1_3  and  C2_4 
REMARK    2  A    between atoms: N2_18  and  C15_19 
ROOT
HETATM    1  O1  UNL     1       0.474   1.179  -1.423  1.00  0.00    -0.247 OA
HETATM    2  C1  UNL     1       0.478   0.774  -0.229  1.00  0.00     0.321 C 
HETATM    3  N1  UNL     1      -0.759   0.496   0.446  1.00  0.00    -0.309 N 
HETATM    4  N2  UNL     1       1.721   0.544   0.450  1.00  0.00    -0.330 N 
HETATM    5  H1  UNL     1      -0.718  -0.089   1.311  1.00  0.00     0.170 HD
HETATM    6  H11 UNL     1       1.687   0.123   1.406  1.00  0.00     0.165 HD
ENDROOT
BRANCH   3   7
HETATM    7  C2  UNL     1      -2.054   0.868  -0.057  1.00  0.00     0.037 A 
HETATM    8  C3  UNL     1      -3.157   0.041   0.207  1.00  0.00     0.044 A 
HETATM    9  C4  UNL     1      -4.446   0.389  -0.249  1.00  0.00     0.010 A 
HETATM   10  C5  UNL     1      -4.603   1.568  -1.001  1.00  0.00     0.080 A 
HETATM   11  C14 UNL     1      -5.665  -0.420   0.048  1.00  0.00    -0.015 A 
HETATM   12  C6  UNL     1      -3.516   2.414  -1.226  1.00  0.00     0.040 A 
HETATM   13  O2  UNL     1      -5.857   1.908  -1.513  1.00  0.00    -0.346 OA
HETATM   14  C7  UNL     1      -2.249   2.072  -0.753  1.00  0.00     0.032 A 
HETATM   15  C8  UNL     1      -6.887   0.940  -1.707  1.00  0.00     0.215 C 
HETATM   16  C9  UNL     1      -6.868  -0.114  -0.630  1.00  0.00    -0.023 A 
HETATM   17  C10 UNL     1      -8.031  -0.855  -0.370  1.00  0.00     0.010 A 
HETATM   18  C11 UNL     1      -8.020  -1.870   0.588  1.00  0.00     0.001 A 
HETATM   19  C12 UNL     1      -6.848  -2.157   1.287  1.00  0.00     0.001 A 
HETATM   20  C13 UNL     1      -5.678  -1.438   1.025  1.00  0.00     0.013 A 
ENDBRANCH   3   7
BRANCH   4  21
HETATM   21  C15 UNL     1       3.026   0.725  -0.199  1.00  0.00     0.179 C 
HETATM   22  C16 UNL     1       4.031   1.306   0.806  1.00  0.00     0.039 C 
HETATM   23  C17 UNL     1       4.641   0.231   1.714  1.00  0.00     0.043 C 
HETATM   24  C18 UNL     1       5.903  -0.340   1.116  1.00  0.00    -0.031 A 
HETATM   25  C19 UNL     1       7.045  -0.419   1.936  1.00  0.00     0.009 A 
HETATM   26  C23 UNL     1       5.981  -0.800  -0.230  1.00  0.00     0.041 A 
HETATM   27  C20 UNL     1       8.250  -0.914   1.440  1.00  0.00     0.001 A 
HETATM   28  C21 UNL     1       8.336  -1.342   0.119  1.00  0.00     0.002 A 
HETATM   29  C22 UNL     1       7.213  -1.288  -0.707  1.00  0.00     0.030 A 
HETATM   30  N3  UNL     1       4.861  -0.813  -1.143  1.00  0.00    -0.325 N 
HETATM   31  C24 UNL     1       3.487  -0.576  -0.812  1.00  0.00     0.245 C 
HETATM   32  H21 UNL     1       5.018  -1.247  -2.082  1.00  0.00     0.169 HD
HETATM   33  O3  UNL     1       2.624  -1.414  -1.192  1.00  0.00    -0.271 OA
ENDBRANCH   4  21
TORSDOF 2
