REMARK  6 active torsions:
REMARK  status: ('A' for Active; 'I' for Inactive)
REMARK    1  A    between atoms: C6_6  and  N1_7 
REMARK       I    between atoms: N1_7  and  C7_8 
REMARK       I    between atoms: C7_8  and  N2_10 
REMARK    2  A    between atoms: N2_10  and  C8_11 
REMARK    3  A    between atoms: C8_11  and  C9_12 
REMARK    4  A    between atoms: C9_12  and  N3_13 
REMARK    5  A    between atoms: N4_18  and  C13_19 
REMARK    6  A    between atoms: C13_19  and  C15_21 
ROOT
HETATM    1  C8  UNL     1       1.030  -3.113   1.193  1.00  0.00     0.154 C 
ENDROOT
BRANCH   1   2
HETATM    2  N2  UNL     1       2.075  -2.179   1.608  1.00  0.00    -0.341 N 
HETATM    3  C7  UNL     1       3.091  -1.707   0.712  1.00  0.00     0.320 C 
HETATM    4  N1  UNL     1       4.040  -0.732   1.170  1.00  0.00    -0.309 N 
HETATM    5  O1  UNL     1       3.122  -2.119  -0.479  1.00  0.00    -0.247 OA
HETATM    6  H7  UNL     1       3.817  -0.220   2.053  1.00  0.00     0.170 HD
HETATM    7  H8  UNL     1       2.107  -1.881   2.609  1.00  0.00     0.164 HD
BRANCH   4   8
HETATM    8  C6  UNL     1       5.200  -0.324   0.425  1.00  0.00     0.036 A 
HETATM    9  C5  UNL     1       5.928  -1.238  -0.357  1.00  0.00     0.029 A 
HETATM   10  C4  UNL     1       7.071  -0.823  -1.045  1.00  0.00     0.003 A 
HETATM   11  C3  UNL     1       7.504   0.502  -0.954  1.00  0.00     0.007 A 
HETATM   12  C2  UNL     1       6.791   1.425  -0.175  1.00  0.00    -0.060 A 
HETATM   13  C1  UNL     1       7.281   2.836  -0.036  1.00  0.00     0.048 C 
HETATM   14  C20 UNL     1       5.654   1.001   0.530  1.00  0.00     0.036 A 
ENDBRANCH   4   8
ENDBRANCH   1   2
BRANCH   1  15
HETATM   15  C9  UNL     1      -0.040  -2.414   0.348  1.00  0.00     0.292 C 
BRANCH  15  16
HETATM   16  N3  UNL     1      -0.770  -1.418   1.169  1.00  0.00     0.092 N 
HETATM   17  C10 UNL     1      -0.298  -0.029   0.929  1.00  0.00     0.281 C 
HETATM   18  C11 UNL     1      -1.035   0.688  -0.211  1.00  0.00     0.133 C 
HETATM   19  C12 UNL     1      -2.298   1.347   0.273  1.00  0.00     0.221 C 
HETATM   20  O2  UNL     1      -2.409   2.596   0.147  1.00  0.00    -0.273 OA
HETATM   21  N4  UNL     1      -3.375   0.574   0.851  1.00  0.00    -0.346 N 
HETATM   22  C18 UNL     1      -3.040  -0.515   1.787  1.00  0.00     0.156 C 
HETATM   23  C19 UNL     1      -2.236  -1.618   1.082  1.00  0.00     0.292 C 
BRANCH  21  24
HETATM   24  C13 UNL     1      -4.800   0.852   0.541  1.00  0.00     0.086 C 
HETATM   25  C14 UNL     1      -5.189   2.316   0.822  1.00  0.00     0.033 C 
BRANCH  24  26
HETATM   26  C15 UNL     1      -5.193   0.332  -0.877  1.00  0.00    -0.000 C 
HETATM   27  C16 UNL     1      -6.719   0.260  -1.046  1.00  0.00     0.011 C 
HETATM   28  C17 UNL     1      -4.580   1.120  -2.047  1.00  0.00     0.011 C 
ENDBRANCH  24  26
ENDBRANCH  21  24
ENDBRANCH  15  16
ENDBRANCH   1  15
TORSDOF 6
