REMARK  4 active torsions:
REMARK  status: ('A' for Active; 'I' for Inactive)
REMARK    1  A    between atoms: C2_2  and  C3_3 
REMARK    2  A    between atoms: C3_3  and  C4_5 
REMARK    3  A    between atoms: C4_5  and  N1_6 
REMARK       I    between atoms: N1_6  and  C5_7 
REMARK    4  A    between atoms: C5_7  and  C6_9 
ROOT
HETATM    1  N1  UNL     1      -0.364  -2.361  -0.198  1.00  0.00    -0.350 N 
HETATM    2  C5  UNL     1       0.334  -1.147  -0.521  1.00  0.00     0.252 C 
HETATM    3  O2  UNL     1      -0.300  -0.179  -1.020  1.00  0.00    -0.268 OA
HETATM    4  H6  UNL     1       0.109  -3.097   0.371  1.00  0.00     0.163 HD
ENDROOT
BRANCH   2   5
HETATM    5  C6  UNL     1       1.789  -1.006  -0.261  1.00  0.00     0.032 A 
HETATM    6  C7  UNL     1       2.622  -2.126  -0.206  1.00  0.00     0.017 A 
HETATM    7  C8  UNL     1       3.987  -1.980   0.021  1.00  0.00     0.009 A 
HETATM    8  C9  UNL     1       4.579  -0.716   0.210  1.00  0.00    -0.050 A 
HETATM    9  C10 UNL     1       3.730   0.439   0.167  1.00  0.00    -0.023 A 
HETATM   10  C16 UNL     1       6.106  -0.762   0.325  1.00  0.00     0.039 C 
HETATM   11  C11 UNL     1       2.354   0.265  -0.090  1.00  0.00     0.026 A 
HETATM   12  C12 UNL     1       4.193   1.869   0.395  1.00  0.00     0.308 C 
HETATM   13  N2  UNL     1       4.809   2.491  -0.787  1.00  0.00     0.087 N 
HETATM   14  C13 UNL     1       5.890   1.711  -1.401  1.00  0.00     0.270 C 
HETATM   15  H12 UNL     1       4.062   2.618  -1.510  1.00  0.00     0.316 HD
HETATM   16  C14 UNL     1       7.094   1.507  -0.467  1.00  0.00     0.030 C 
HETATM   17  C15 UNL     1       6.907   0.496   0.684  1.00  0.00     0.006 C 
ENDBRANCH   2   5
BRANCH   1  18
HETATM   18  C4  UNL     1      -1.762  -2.586  -0.564  1.00  0.00     0.202 C 
BRANCH  18  19
HETATM   19  C3  UNL     1      -2.693  -1.849   0.373  1.00  0.00     0.152 C 
HETATM   20  O1  UNL     1      -2.370  -1.761   1.551  1.00  0.00    -0.295 OA
BRANCH  19  21
HETATM   21  C2  UNL     1      -4.038  -1.276  -0.110  1.00  0.00     0.018 C 
HETATM   22  C1  UNL     1      -4.793  -2.392  -0.872  1.00  0.00     0.023 C 
HETATM   23  C17 UNL     1      -3.780  -0.080  -1.093  1.00  0.00     0.018 C 
HETATM   24  C18 UNL     1      -3.767   1.280  -0.390  1.00  0.00     0.010 C 
HETATM   25  C19 UNL     1      -5.133   1.515   0.280  1.00  0.00    -0.040 A 
HETATM   26  C20 UNL     1      -5.917   0.283   0.766  1.00  0.00     0.010 C 
HETATM   27  C22 UNL     1      -5.976   2.674  -0.238  1.00  0.00     0.010 A 
HETATM   28  C23 UNL     1      -5.257   2.794   1.100  1.00  0.00     0.010 A 
HETATM   29  C21 UNL     1      -4.928  -0.836   1.114  1.00  0.00     0.018 C 
ENDBRANCH  19  21
ENDBRANCH  18  19
ENDBRANCH   1  18
TORSDOF 4
