REMARK  3 active torsions:
REMARK  status: ('A' for Active; 'I' for Inactive)
REMARK    1  A    between atoms: C5_5  and  C6_6 
REMARK    2  A    between atoms: C9_9  and  C10_10 
REMARK    3  A    between atoms: C23_25  and  O2_26 
ROOT
HETATM    1  C6  UNL     1       2.586   0.059  -0.204  1.00  0.00    -0.026 A 
HETATM    2  C7  UNL     1       1.827  -0.184   0.953  1.00  0.00     0.013 A 
HETATM    3  C8  UNL     1       0.441  -0.002   0.945  1.00  0.00     0.013 A 
HETATM    4  C9  UNL     1      -0.217   0.426  -0.220  1.00  0.00    -0.026 A 
HETATM    5  C20 UNL     1       0.543   0.670  -1.378  1.00  0.00     0.013 A 
HETATM    6  C21 UNL     1       1.928   0.488  -1.370  1.00  0.00     0.013 A 
ENDROOT
BRANCH   4   7
HETATM    7  C10 UNL     1      -1.689   0.620  -0.229  1.00  0.00    -0.025 A 
HETATM    8  C11 UNL     1      -2.255   1.726  -0.870  1.00  0.00     0.013 A 
HETATM    9  C12 UNL     1      -3.635   1.913  -0.872  1.00  0.00     0.008 A 
HETATM   10  C13 UNL     1      -4.501   1.010  -0.228  1.00  0.00    -0.050 A 
HETATM   11  C14 UNL     1      -3.936  -0.142   0.407  1.00  0.00    -0.042 A 
HETATM   12  C19 UNL     1      -5.988   1.305  -0.397  1.00  0.00     0.058 C 
HETATM   13  C15 UNL     1      -2.535  -0.301   0.406  1.00  0.00     0.020 A 
HETATM   14  C16 UNL     1      -4.733  -1.161   1.196  1.00  0.00     0.141 C 
HETATM   15  C17 UNL     1      -5.955  -1.628   0.473  1.00  0.00     0.221 C 
HETATM   16  O1  UNL     1      -6.002  -2.794  -0.003  1.00  0.00    -0.273 OA
HETATM   17  N1  UNL     1      -7.076  -0.759   0.332  1.00  0.00    -0.360 N 
HETATM   18  C18 UNL     1      -6.951   0.666   0.603  1.00  0.00     0.127 C 
HETATM   19  H13 UNL     1      -7.978  -1.136  -0.039  1.00  0.00     0.162 HD
ENDBRANCH   4   7
BRANCH   1  20
HETATM   20  C5  UNL     1       4.059  -0.135  -0.196  1.00  0.00    -0.023 A 
HETATM   21  C4  UNL     1       4.903   0.779  -0.850  1.00  0.00     0.013 A 
HETATM   22  C3  UNL     1       6.288   0.598  -0.841  1.00  0.00     0.010 A 
HETATM   23  C2  UNL     1       6.858  -0.500  -0.179  1.00  0.00    -0.029 A 
HETATM   24  C1  UNL     1       8.348  -0.692  -0.173  1.00  0.00     0.051 C 
HETATM   25  C23 UNL     1       6.022  -1.421   0.476  1.00  0.00     0.072 A 
HETATM   26  C22 UNL     1       4.632  -1.235   0.467  1.00  0.00     0.049 A 
BRANCH  25  27
HETATM   27  O2  UNL     1       6.575  -2.520   1.134  1.00  0.00    -0.360 OA
HETATM   28  H21 UNL     1       5.995  -3.199   1.614  1.00  0.00     0.217 HD
ENDBRANCH  25  27
ENDBRANCH   1  20
TORSDOF 3
