REMARK  4 active torsions:
REMARK  status: ('A' for Active; 'I' for Inactive)
REMARK    1  A    between atoms: O1_2  and  C2_3 
REMARK    2  A    between atoms: C2_3  and  C3_5 
REMARK    3  A    between atoms: N1_8  and  C6_9 
REMARK       I    between atoms: N2_11  and  C8_12 
REMARK    4  A    between atoms: C8_12  and  C9_14 
ROOT
HETATM    1  C6  UNL     1       1.179  -0.533   0.159  1.00  0.00     0.377 C 
HETATM    2  C7  UNL     1      -0.181  -0.258   0.838  1.00  0.00     0.190 C 
HETATM    3  N2  UNL     1      -1.270  -0.311  -0.149  1.00  0.00    -0.344 N 
HETATM    4  C8  UNL     1      -1.789   0.923  -0.680  1.00  0.00     0.256 C 
HETATM    5  O3  UNL     1      -1.024   1.917  -0.813  1.00  0.00    -0.267 OA
HETATM    6  C17 UNL     1      -1.657  -1.577  -0.805  1.00  0.00     0.128 C 
HETATM    7  C18 UNL     1      -0.947  -2.818  -0.233  1.00  0.00     0.046 C 
HETATM    8  C19 UNL     1       0.596  -2.774  -0.328  1.00  0.00     0.172 C 
HETATM    9  O4  UNL     1       1.083  -1.544  -0.839  1.00  0.00    -0.356 OA
ENDROOT
BRANCH   4  10
HETATM   10  C9  UNL     1      -3.199   1.046  -1.102  1.00  0.00     0.059 A 
HETATM   11  C10 UNL     1      -3.527   1.690  -2.316  1.00  0.00     0.019 A 
HETATM   12  C11 UNL     1      -4.872   1.805  -2.730  1.00  0.00     0.002 A 
HETATM   13  C12 UNL     1      -5.910   1.294  -1.934  1.00  0.00     0.014 A 
HETATM   14  C13 UNL     1      -5.566   0.682  -0.732  1.00  0.00    -0.007 A 
HETATM   15  C14 UNL     1      -6.364   0.138   0.250  1.00  0.00     0.030 A 
HETATM   16  C16 UNL     1      -4.262   0.563  -0.322  1.00  0.00     0.058 A 
HETATM   17  C15 UNL     1      -5.485  -0.286   1.239  1.00  0.00     0.089 A 
HETATM   18  N3  UNL     1      -4.206  -0.021   0.890  1.00  0.00    -0.364 N 
HETATM   19  H17 UNL     1      -3.358  -0.219   1.466  1.00  0.00     0.165 HD
ENDBRANCH   4  10
BRANCH   1  20
HETATM   20  N1  UNL     1       2.212  -0.879   1.166  1.00  0.00     0.121 N 
HETATM   21  C5  UNL     1       2.674   0.293   1.931  1.00  0.00     0.297 A 
HETATM   22  C3  UNL     1       4.083   0.229   1.340  1.00  0.00     0.097 A 
HETATM   23  C4  UNL     1       5.175  -0.117   2.361  1.00  0.00     0.030 C 
HETATM   24  C20 UNL     1       3.553  -0.976   0.563  1.00  0.00     0.297 A 
BRANCH  22  25
HETATM   25  C2  UNL     1       4.445   1.408   0.473  1.00  0.00     0.270 C 
HETATM   26  O2  UNL     1       4.187   2.580   0.865  1.00  0.00    -0.264 OA
BRANCH  25  27
HETATM   27  O1  UNL     1       5.137   1.200  -0.724  1.00  0.00    -0.326 OA
HETATM   28  C1  UNL     1       5.526   2.267  -1.579  1.00  0.00     0.213 C 
ENDBRANCH  25  27
ENDBRANCH  22  25
ENDBRANCH   1  20
TORSDOF 4
