REMARK  5 active torsions:
REMARK  status: ('A' for Active; 'I' for Inactive)
REMARK    1  A    between atoms: C5_5  and  C6_6 
REMARK    2  A    between atoms: C6_6  and  N1_7 
REMARK    3  A    between atoms: C12_13  and  O1_14 
REMARK    4  A    between atoms: C18_20  and  S1_21 
REMARK    5  A    between atoms: S1_21  and  N2_22 
ROOT
HETATM    1  C6  UNL     1       0.181  -0.440  -2.010  1.00  0.00     0.311 C 
ENDROOT
BRANCH   1   2
HETATM    2  C5  UNL     1       1.213  -0.596  -0.923  1.00  0.00    -0.029 A 
HETATM    3  C4  UNL     1       0.935  -1.396   0.190  1.00  0.00     0.009 A 
HETATM    4  C3  UNL     1       1.874  -1.532   1.212  1.00  0.00     0.009 A 
HETATM    5  C2  UNL     1       3.108  -0.863   1.147  1.00  0.00    -0.039 A 
HETATM    6  C1  UNL     1       4.097  -1.069   2.264  1.00  0.00     0.050 C 
HETATM    7  C18 UNL     1       3.404  -0.063   0.014  1.00  0.00     0.080 A 
HETATM    8  C17 UNL     1       2.447   0.064  -1.007  1.00  0.00     0.034 A 
BRANCH   7   9
HETATM    9  S1  UNL     1       4.948   0.797  -0.158  1.00  0.00     0.239 S 
HETATM   10  O2  UNL     1       4.980   1.539  -1.465  1.00  0.00    -0.206 OA
HETATM   11  O3  UNL     1       5.099   1.794   0.956  1.00  0.00    -0.206 OA
BRANCH   9  12
HETATM   12  N2  UNL     1       6.274  -0.315  -0.138  1.00  0.00    -0.225 NA
HETATM   13  H21 UNL     1       5.910  -1.244  -0.449  1.00  0.00     0.136 HD
HETATM   14  H22 UNL     1       6.586  -0.420   0.853  1.00  0.00     0.136 HD
ENDBRANCH   9  12
ENDBRANCH   7   9
ENDBRANCH   1   2
BRANCH   1  15
HETATM   15  N1  UNL     1      -1.036   0.198  -1.467  1.00  0.00     0.093 N 
HETATM   16  C7  UNL     1      -0.855   1.663  -1.318  1.00  0.00     0.277 C 
HETATM   17  C8  UNL     1      -1.756   2.266  -0.209  1.00  0.00     0.069 C 
HETATM   18  C9  UNL     1      -2.671   1.271   0.481  1.00  0.00    -0.050 A 
HETATM   19  C10 UNL     1      -2.678   1.186   1.883  1.00  0.00     0.010 A 
HETATM   20  C14 UNL     1      -3.547   0.448  -0.265  1.00  0.00    -0.048 A 
HETATM   21  C11 UNL     1      -3.524   0.287   2.536  1.00  0.00     0.037 A 
HETATM   22  C12 UNL     1      -4.377  -0.538   1.800  1.00  0.00     0.066 A 
HETATM   23  C13 UNL     1      -4.386  -0.461   0.402  1.00  0.00     0.044 A 
HETATM   24  C15 UNL     1      -3.516   0.478  -1.773  1.00  0.00     0.069 C 
HETATM   25  C16 UNL     1      -2.208  -0.128  -2.313  1.00  0.00     0.277 C 
BRANCH  22  26
HETATM   26  O1  UNL     1      -5.210  -1.434   2.467  1.00  0.00    -0.361 OA
HETATM   27  H14 UNL     1      -5.840  -2.047   1.963  1.00  0.00     0.217 HD
ENDBRANCH  22  26
ENDBRANCH   1  15
TORSDOF 5
