REMARK  3 active torsions:
REMARK  status: ('A' for Active; 'I' for Inactive)
REMARK    1  A    between atoms: C1_2  and  C2_3 
REMARK       I    between atoms: C1_2  and  N1_13 
REMARK       I    between atoms: N2_16  and  C14_17 
REMARK    2  A    between atoms: C14_17  and  C15_19 
REMARK    3  A    between atoms: C17_21  and  C18_22 
ROOT
HETATM    1  O1  UNL     1       3.542  -2.279  -1.449  1.00  0.00    -0.267 OA
HETATM    2  C1  UNL     1       3.190  -1.358  -0.663  1.00  0.00     0.258 C 
HETATM    3  N1  UNL     1       2.353  -1.674   0.464  1.00  0.00    -0.311 N 
HETATM    4  C12 UNL     1       1.175  -0.849   0.770  1.00  0.00     0.154 C 
HETATM    5  C13 UNL     1       0.033  -1.117  -0.227  1.00  0.00     0.173 C 
HETATM    6  N2  UNL     1      -0.986  -1.995   0.367  1.00  0.00    -0.253 N 
HETATM    7  C14 UNL     1      -2.315  -1.499   0.599  1.00  0.00     0.272 C 
HETATM    8  O2  UNL     1      -2.856  -1.690   1.722  1.00  0.00    -0.266 OA
HETATM    9  N3  UNL     1      -0.628  -3.260   0.872  1.00  0.00    -0.261 N 
HETATM   10  C27 UNL     1       0.528  -3.949   0.398  1.00  0.00     0.272 C 
HETATM   11  O3  UNL     1       0.503  -4.520  -0.724  1.00  0.00    -0.266 OA
HETATM   12  C28 UNL     1       1.751  -3.971   1.202  1.00  0.00     0.060 A 
HETATM   13  C29 UNL     1       2.084  -5.137   1.907  1.00  0.00     0.019 A 
HETATM   14  C30 UNL     1       3.279  -5.207   2.630  1.00  0.00     0.001 A 
HETATM   15  C31 UNL     1       4.152  -4.117   2.645  1.00  0.00     0.002 A 
HETATM   16  C32 UNL     1       3.833  -2.955   1.939  1.00  0.00     0.031 A 
HETATM   17  C33 UNL     1       2.630  -2.866   1.220  1.00  0.00     0.053 A 
HETATM   18  H21 UNL     1      -1.276  -3.775   1.509  1.00  0.00     0.190 HD
ENDROOT
BRANCH   7  19
HETATM   19  C15 UNL     1      -3.071  -0.800  -0.467  1.00  0.00     0.034 A 
HETATM   20  C16 UNL     1      -4.091   0.110  -0.137  1.00  0.00     0.029 A 
HETATM   21  C17 UNL     1      -4.826   0.763  -1.144  1.00  0.00    -0.025 A 
HETATM   22  C24 UNL     1      -4.533   0.486  -2.490  1.00  0.00     0.012 A 
HETATM   23  C25 UNL     1      -3.528  -0.423  -2.822  1.00  0.00     0.002 A 
HETATM   24  C26 UNL     1      -2.803  -1.066  -1.819  1.00  0.00     0.017 A 
BRANCH  21  25
HETATM   25  C18 UNL     1      -5.897   1.730  -0.791  1.00  0.00    -0.026 A 
HETATM   26  C19 UNL     1      -5.713   2.649   0.258  1.00  0.00     0.012 A 
HETATM   27  C20 UNL     1      -6.719   3.566   0.581  1.00  0.00     0.001 A 
HETATM   28  C21 UNL     1      -7.917   3.573  -0.136  1.00  0.00     0.000 A 
HETATM   29  C22 UNL     1      -8.113   2.663  -1.178  1.00  0.00     0.001 A 
HETATM   30  C23 UNL     1      -7.110   1.746  -1.505  1.00  0.00     0.012 A 
ENDBRANCH  21  25
ENDBRANCH   7  19
BRANCH   2  31
HETATM   31  C2  UNL     1       3.652   0.023  -0.913  1.00  0.00     0.033 A 
HETATM   32  C3  UNL     1       4.012   0.854   0.160  1.00  0.00     0.029 A 
HETATM   33  C4  UNL     1       4.455   2.165  -0.073  1.00  0.00    -0.025 A 
HETATM   34  C5  UNL     1       4.815   3.000   0.996  1.00  0.00     0.012 A 
HETATM   35  C9  UNL     1       4.537   2.651  -1.400  1.00  0.00    -0.026 A 
HETATM   36  C6  UNL     1       5.244   4.307   0.752  1.00  0.00     0.001 A 
HETATM   37  C7  UNL     1       5.317   4.790  -0.557  1.00  0.00     0.001 A 
HETATM   38  C8  UNL     1       4.966   3.967  -1.631  1.00  0.00     0.012 A 
HETATM   39  C10 UNL     1       4.192   1.811  -2.469  1.00  0.00     0.013 A 
HETATM   40  C11 UNL     1       3.760   0.504  -2.226  1.00  0.00     0.018 A 
ENDBRANCH   2  31
TORSDOF 3
