REMARK  2 active torsions:
REMARK  status: ('A' for Active; 'I' for Inactive)
REMARK    1  A    between atoms: S1_2  and  C2_3 
REMARK    2  A    between atoms: C4_6  and  N2_7 
ROOT
HETATM    1  N2  UNL     1      -0.536  -0.599  -0.430  1.00  0.00    -0.328 N 
HETATM    2  C5  UNL     1      -0.756  -2.009  -0.800  1.00  0.00     0.140 C 
HETATM    3  C6  UNL     1      -2.058  -2.589  -0.242  1.00  0.00     0.123 C 
HETATM    4  C7  UNL     1      -2.206  -2.279   1.216  1.00  0.00     0.223 C 
HETATM    5  O1  UNL     1      -2.042  -3.191   2.070  1.00  0.00    -0.273 OA
HETATM    6  N3  UNL     1      -2.545  -0.956   1.647  1.00  0.00    -0.324 N 
HETATM    7  C8  UNL     1      -2.587   0.163   0.748  1.00  0.00     0.081 A 
HETATM    8  C9  UNL     1      -3.559   1.155   0.926  1.00  0.00     0.035 A 
HETATM    9  C10 UNL     1      -3.603   2.255   0.070  1.00  0.00     0.022 A 
HETATM   10  C11 UNL     1      -2.659   2.365  -0.950  1.00  0.00     0.119 A 
HETATM   11  N4  UNL     1      -1.702   1.412  -1.097  1.00  0.00    -0.241 NA
HETATM   12  C12 UNL     1      -1.642   0.315  -0.290  1.00  0.00     0.157 A 
HETATM   13  H9  UNL     1      -2.885  -0.828   2.628  1.00  0.00     0.169 HD
ENDROOT
BRANCH   1  14
HETATM   14  C4  UNL     1       0.805  -0.059  -0.426  1.00  0.00     0.055 A 
HETATM   15  C3  UNL     1       1.791  -0.543  -1.303  1.00  0.00     0.147 A 
HETATM   16  N1  UNL     1       3.046  -0.021  -1.280  1.00  0.00    -0.250 NA
HETATM   17  C2  UNL     1       3.401   0.972  -0.422  1.00  0.00     0.110 A 
HETATM   18  C14 UNL     1       2.451   1.493   0.471  1.00  0.00     0.048 A 
HETATM   19  C13 UNL     1       1.155   0.970   0.463  1.00  0.00     0.053 A 
HETATM   20 BR1  UNL     1       2.874   2.898   1.702  1.00  0.00    -0.048 Br
BRANCH  17  21
HETATM   21  S1  UNL     1       5.084   1.594  -0.471  1.00  0.00    -0.114 SA
HETATM   22  C1  UNL     1       5.697   0.370   0.729  1.00  0.00     0.097 C 
ENDBRANCH  17  21
ENDBRANCH   1  14
TORSDOF 2
