REMARK  2 active torsions:
REMARK  status: ('A' for Active; 'I' for Inactive)
REMARK    1  A    between atoms: C2_2  and  C3_3 
REMARK       I    between atoms: N1_10  and  C10_11 
REMARK    2  A    between atoms: C10_11  and  C11_13 
ROOT
HETATM    1  C11 UNL     1      -0.376  -0.147  -0.370  1.00  0.00     0.125 A 
HETATM    2  C12 UNL     1      -1.174   0.982  -0.159  1.00  0.00     0.050 A 
HETATM    3  C13 UNL     1      -2.210   0.935   0.781  1.00  0.00    -0.007 A 
HETATM    4  C14 UNL     1      -2.475  -0.271   1.469  1.00  0.00     0.043 A 
HETATM    5  C15 UNL     1      -1.602  -1.348   1.271  1.00  0.00     0.133 A 
HETATM    6  N2  UNL     1      -0.596  -1.263   0.367  1.00  0.00    -0.254 NA
HETATM    7  C16 UNL     1      -3.545  -0.423   2.491  1.00  0.00     0.195 C 
HETATM    8  O2  UNL     1      -3.201  -0.926   3.596  1.00  0.00    -0.287 OA
HETATM    9  C17 UNL     1      -4.992  -0.059   2.314  1.00  0.00     0.026 A 
HETATM   10  C18 UNL     1      -5.719   0.209   3.495  1.00  0.00     0.016 A 
HETATM   11  C19 UNL     1      -7.102   0.414   3.466  1.00  0.00     0.001 A 
HETATM   12  C20 UNL     1      -7.795   0.358   2.259  1.00  0.00     0.001 A 
HETATM   13  C21 UNL     1      -7.101   0.121   1.073  1.00  0.00     0.013 A 
HETATM   14  C22 UNL     1      -5.707  -0.087   1.074  1.00  0.00    -0.011 A 
HETATM   15  C23 UNL     1      -5.077  -0.176  -0.262  1.00  0.00    -0.014 A 
HETATM   16  C24 UNL     1      -5.219  -1.338  -1.034  1.00  0.00     0.013 A 
HETATM   17  C25 UNL     1      -4.774  -1.362  -2.364  1.00  0.00     0.001 A 
HETATM   18  C26 UNL     1      -4.212  -0.218  -2.941  1.00  0.00     0.001 A 
HETATM   19  C27 UNL     1      -4.088   0.954  -2.188  1.00  0.00     0.013 A 
HETATM   20  C28 UNL     1      -4.532   0.984  -0.855  1.00  0.00    -0.014 A 
HETATM   21  C29 UNL     1      -4.223   2.154  -0.009  1.00  0.00    -0.014 A 
HETATM   22  C30 UNL     1      -5.069   3.262   0.019  1.00  0.00     0.013 A 
HETATM   23  C31 UNL     1      -4.818   4.307   0.918  1.00  0.00     0.001 A 
HETATM   24  C32 UNL     1      -3.717   4.248   1.784  1.00  0.00     0.001 A 
HETATM   25  C33 UNL     1      -2.855   3.147   1.743  1.00  0.00     0.013 A 
HETATM   26  C34 UNL     1      -3.117   2.093   0.859  1.00  0.00    -0.014 A 
ENDROOT
BRANCH   1  27
HETATM   27  C10 UNL     1       0.666  -0.139  -1.433  1.00  0.00     0.272 C 
HETATM   28  N1  UNL     1       1.868  -0.938  -1.332  1.00  0.00    -0.345 N 
HETATM   29  C9  UNL     1       3.149  -0.337  -1.727  1.00  0.00     0.145 C 
HETATM   30  C35 UNL     1       1.799  -2.389  -1.135  1.00  0.00     0.131 C 
HETATM   31  C2  UNL     1       4.226  -0.319  -0.590  1.00  0.00     0.027 C 
HETATM   32  C1  UNL     1       3.587   0.228   0.722  1.00  0.00     0.027 C 
HETATM   33  C42 UNL     1       4.794  -1.764  -0.375  1.00  0.00    -0.037 A 
HETATM   34  C37 UNL     1       3.967  -2.870   0.038  1.00  0.00    -0.049 A 
HETATM   35  C41 UNL     1       6.176  -2.035  -0.609  1.00  0.00     0.009 A 
HETATM   36  C36 UNL     1       2.466  -2.792   0.176  1.00  0.00     0.059 C 
HETATM   37  C38 UNL     1       4.566  -4.116   0.315  1.00  0.00     0.007 A 
HETATM   38  C39 UNL     1       5.926  -4.322   0.114  1.00  0.00     0.001 A 
HETATM   39  C40 UNL     1       6.724  -3.289  -0.366  1.00  0.00     0.001 A 
HETATM   40  O1  UNL     1       0.501   0.602  -2.436  1.00  0.00    -0.266 OA
BRANCH  31  41
HETATM   41  C3  UNL     1       5.363   0.685  -0.963  1.00  0.00    -0.044 A 
HETATM   42  C4  UNL     1       6.265   1.139   0.032  1.00  0.00     0.008 A 
HETATM   43  C5  UNL     1       7.310   2.012  -0.284  1.00  0.00     0.001 A 
HETATM   44  C6  UNL     1       7.490   2.446  -1.600  1.00  0.00     0.000 A 
HETATM   45  C7  UNL     1       6.652   1.972  -2.606  1.00  0.00     0.001 A 
HETATM   46  C8  UNL     1       5.608   1.100  -2.297  1.00  0.00     0.008 A 
ENDBRANCH  31  41
ENDBRANCH   1  27
TORSDOF 2
