REMARK  3 active torsions:
REMARK  status: ('A' for Active; 'I' for Inactive)
REMARK    1  A    between atoms: C2_4  and  C3_5 
REMARK       I    between atoms: C3_5  and  N2_7 
REMARK    2  A    between atoms: C4_8  and  C5_9 
REMARK    3  A    between atoms: C8_12  and  O3_13 
ROOT
HETATM    1  C3  UNL     1      -0.326  -0.854  -0.525  1.00  0.00     0.276 C 
HETATM    2  O2  UNL     1      -0.060  -0.988  -1.750  1.00  0.00    -0.268 OA
HETATM    3  N2  UNL     1       0.691  -1.125   0.441  1.00  0.00    -0.339 N 
HETATM    4  C4  UNL     1       2.111  -1.524   0.438  1.00  0.00     0.122 A 
HETATM    5  C11 UNL     1       2.269  -1.554   1.929  1.00  0.00     0.050 A 
HETATM    6  C12 UNL     1       0.826  -1.164   1.910  1.00  0.00     0.129 A 
ENDROOT
BRANCH   1   7
HETATM    7  C2  UNL     1      -1.701  -0.430  -0.071  1.00  0.00     0.220 C 
HETATM    8  N1  UNL     1      -2.312  -1.519   0.674  1.00  0.00    -0.319 N 
HETATM    9  C1  UNL     1      -2.828  -0.932   1.829  1.00  0.00     0.249 C 
HETATM   10  H1  UNL     1      -2.518  -2.482   0.325  1.00  0.00     0.166 HD
HETATM   11  O1  UNL     1      -3.490  -1.556   2.700  1.00  0.00    -0.271 OA
HETATM   12  C17 UNL     1      -2.522   0.506   1.843  1.00  0.00     0.217 C 
HETATM   13  C16 UNL     1      -3.781   1.357   1.567  1.00  0.00     0.042 C 
HETATM   14  O4  UNL     1      -1.570   0.686   0.808  1.00  0.00    -0.337 OA
HETATM   15  C15 UNL     1      -4.032   1.661   0.074  1.00  0.00     0.003 C 
HETATM   16  C14 UNL     1      -4.030   0.414  -0.831  1.00  0.00     0.006 C 
HETATM   17  C13 UNL     1      -2.613  -0.029  -1.257  1.00  0.00     0.072 C 
ENDBRANCH   1   7
BRANCH   4  18
HETATM   18  C5  UNL     1       2.992  -0.495  -0.244  1.00  0.00    -0.035 A 
HETATM   19  C6  UNL     1       4.089  -0.922  -1.010  1.00  0.00     0.012 A 
HETATM   20  C7  UNL     1       4.925   0.011  -1.631  1.00  0.00     0.037 A 
HETATM   21  C8  UNL     1       4.679   1.382  -1.487  1.00  0.00     0.065 A 
HETATM   22  C9  UNL     1       3.596   1.815  -0.717  1.00  0.00     0.037 A 
HETATM   23  C10 UNL     1       2.758   0.885  -0.094  1.00  0.00     0.012 A 
BRANCH  21  24
HETATM   24  O3  UNL     1       5.505   2.321  -2.102  1.00  0.00    -0.361 OA
HETATM   25  H5  UNL     1       6.298   2.039  -2.666  1.00  0.00     0.217 HD
ENDBRANCH  21  24
ENDBRANCH   4  18
TORSDOF 3
