REMARK  4 active torsions:
REMARK  status: ('A' for Active; 'I' for Inactive)
REMARK       I    between atoms: C1_2  and  N1_3 
REMARK    1  A    between atoms: C1_2  and  C16_18 
REMARK    2  A    between atoms: N1_3  and  C2_4 
REMARK    3  A    between atoms: C2_4  and  C3_5 
REMARK    4  A    between atoms: C5_7  and  C6_8 
ROOT
HETATM    1  O1  UNL     1      -3.188  -0.091   2.349  1.00  0.00    -0.268 OA
HETATM    2  C1  UNL     1      -3.034   0.198   1.130  1.00  0.00     0.251 C 
HETATM    3  N1  UNL     1      -1.716   0.202   0.562  1.00  0.00    -0.357 N 
HETATM    4  H1  UNL     1      -1.579   0.573  -0.405  1.00  0.00     0.162 HD
ENDROOT
BRANCH   3   5
HETATM    5  C2  UNL     1      -0.561  -0.278   1.318  1.00  0.00     0.128 C 
BRANCH   5   6
HETATM    6  C3  UNL     1       0.720  -0.138   0.487  1.00  0.00     0.012 A 
HETATM    7  C4  UNL     1       1.000  -1.299  -0.465  1.00  0.00     0.016 A 
HETATM    8  C5  UNL     1       1.820  -1.145   0.814  1.00  0.00     0.025 A 
BRANCH   8   9
HETATM    9  C6  UNL     1       3.259  -0.682   0.657  1.00  0.00    -0.053 A 
HETATM   10  C7  UNL     1       4.213  -1.215   1.539  1.00  0.00     0.008 A 
HETATM   11  C8  UNL     1       5.555  -0.837   1.462  1.00  0.00     0.013 A 
HETATM   12  C9  UNL     1       5.974   0.085   0.495  1.00  0.00    -0.026 A 
HETATM   13  C10 UNL     1       7.321   0.471   0.409  1.00  0.00     0.012 A 
HETATM   14  C14 UNL     1       5.028   0.634  -0.402  1.00  0.00    -0.025 A 
HETATM   15  C11 UNL     1       7.726   1.393  -0.559  1.00  0.00     0.001 A 
HETATM   16  C12 UNL     1       6.793   1.936  -1.447  1.00  0.00     0.001 A 
HETATM   17  C13 UNL     1       5.449   1.560  -1.371  1.00  0.00     0.012 A 
HETATM   18  C15 UNL     1       3.681   0.250  -0.318  1.00  0.00     0.019 A 
ENDBRANCH   8   9
ENDBRANCH   5   6
ENDBRANCH   3   5
BRANCH   2  19
HETATM   19  C16 UNL     1      -4.211   0.565   0.309  1.00  0.00     0.060 C 
HETATM   20  C17 UNL     1      -4.215   0.274  -1.165  1.00  0.00     0.007 C 
HETATM   21  C18 UNL     1      -5.440   0.106  -1.706  1.00  0.00     0.029 C 
HETATM   22  C19 UNL     1      -6.021  -1.228  -1.380  1.00  0.00     0.007 C 
HETATM   23  C22 UNL     1      -6.392   1.234  -1.343  1.00  0.00     0.136 C 
HETATM   24  C20 UNL     1      -6.262  -1.604  -0.095  1.00  0.00     0.083 C 
HETATM   25  N2  UNL     1      -5.960  -0.754   1.048  1.00  0.00    -0.366 N 
HETATM   26  C21 UNL     1      -5.448   0.574   0.851  1.00  0.00     0.183 C 
HETATM   27  H18 UNL     1      -6.141  -1.100   2.016  1.00  0.00     0.161 HD
HETATM   28  N3  UNL     1      -6.363   1.405   0.118  1.00  0.00    -0.388 N 
HETATM   29  H19 UNL     1      -7.149   1.887   0.608  1.00  0.00     0.156 HD
ENDBRANCH   2  19
TORSDOF 4
