REMARK  3 active torsions:
REMARK  status: ('A' for Active; 'I' for Inactive)
REMARK       I    between atoms: C1_2  and  N1_3 
REMARK    1  A    between atoms: C1_2  and  C10_13 
REMARK    2  A    between atoms: N1_3  and  C2_4 
REMARK    3  A    between atoms: C2_4  and  C3_5 
ROOT
HETATM    1  C10 UNL     1       1.201   0.044   0.778  1.00  0.00     0.074 A 
HETATM    2  C11 UNL     1       1.312   0.587   2.046  1.00  0.00     0.162 A 
HETATM    3  O2  UNL     1       2.576   0.798   2.330  1.00  0.00    -0.304 OA
HETATM    4  C12 UNL     1       3.307   0.431   1.305  1.00  0.00     0.166 A 
HETATM    5  C13 UNL     1       2.499  -0.060   0.287  1.00  0.00     0.100 A 
HETATM    6  C14 UNL     1       2.940  -0.715  -0.965  1.00  0.00     0.257 C 
HETATM    7  O3  UNL     1       2.239  -1.634  -1.466  1.00  0.00    -0.267 OA
HETATM    8  N2  UNL     1       4.166  -0.351  -1.610  1.00  0.00    -0.348 N 
HETATM    9  C15 UNL     1       4.946   0.811  -1.208  1.00  0.00     0.226 C 
HETATM   10  C16 UNL     1       5.552   0.576   0.139  1.00  0.00     0.241 C 
HETATM   11  O4  UNL     1       6.803   0.467   0.244  1.00  0.00    -0.271 OA
HETATM   12  N3  UNL     1       4.739   0.498   1.316  1.00  0.00    -0.305 N 
HETATM   13  H12 UNL     1       4.469  -0.889  -2.453  1.00  0.00     0.163 HD
HETATM   14  H15 UNL     1       5.213   0.571   2.245  1.00  0.00     0.171 HD
ENDROOT
BRANCH   1  15
HETATM   15  C1  UNL     1      -0.065  -0.275   0.086  1.00  0.00     0.255 C 
HETATM   16  O1  UNL     1      -0.101  -0.280  -1.173  1.00  0.00    -0.268 OA
HETATM   17  N1  UNL     1      -1.257  -0.554   0.840  1.00  0.00    -0.343 N 
HETATM   18  H1  UNL     1      -1.187  -0.598   1.881  1.00  0.00     0.164 HD
BRANCH  17  19
HETATM   19  C2  UNL     1      -2.580  -0.691   0.214  1.00  0.00     0.067 A 
HETATM   20  C7  UNL     1      -3.602  -1.366   1.143  1.00  0.00     0.037 A 
HETATM   21  C8  UNL     1      -3.669  -2.563   0.206  1.00  0.00     0.006 A 
HETATM   22  C9  UNL     1      -2.670  -1.899  -0.731  1.00  0.00     0.037 A 
BRANCH  19  23
HETATM   23  C3  UNL     1      -3.068   0.624  -0.352  1.00  0.00     0.011 A 
HETATM   24  C4  UNL     1      -2.906   1.079  -1.658  1.00  0.00     0.018 A 
HETATM   25  C5  UNL     1      -3.343   2.396  -1.847  1.00  0.00     0.008 A 
HETATM   26  C6  UNL     1      -3.824   2.996  -0.692  1.00  0.00     0.050 A 
HETATM   27  S1  UNL     1      -3.700   1.888   0.565  1.00  0.00    -0.104 SA
ENDBRANCH  19  23
ENDBRANCH  17  19
ENDBRANCH   1  15
TORSDOF 3
