REMARK  2 active torsions:
REMARK  status: ('A' for Active; 'I' for Inactive)
REMARK    1  A    between atoms: C2_4  and  C3_5 
REMARK    2  A    between atoms: C14_17  and  C15_18 
ROOT
HETATM    1  C3  UNL     1       2.320   0.058   0.200  1.00  0.00    -0.030 A 
HETATM    2  C4  UNL     1       1.632  -0.615   1.221  1.00  0.00     0.010 A 
HETATM    3  C5  UNL     1       0.263  -0.853   1.112  1.00  0.00     0.012 A 
HETATM    4  C6  UNL     1      -0.443  -0.431  -0.023  1.00  0.00    -0.028 A 
HETATM    5  C7  UNL     1       0.231   0.254  -1.061  1.00  0.00    -0.045 A 
HETATM    6  C8  UNL     1       1.615   0.478  -0.940  1.00  0.00     0.017 A 
HETATM    7  C9  UNL     1      -0.473   0.702  -2.332  1.00  0.00     0.070 C 
HETATM    8  C10 UNL     1      -1.804   1.446  -2.099  1.00  0.00     0.135 A 
HETATM    9  C11 UNL     1      -1.795   2.495  -1.187  1.00  0.00     0.030 A 
HETATM   10  C12 UNL     1      -1.787   3.033   0.030  1.00  0.00     0.046 C 
HETATM   11  C13 UNL     1      -1.770   2.308   1.324  1.00  0.00     0.119 C 
HETATM   12  N2  UNL     1      -2.212   1.101   1.548  1.00  0.00    -0.260 NA
HETATM   13  C14 UNL     1      -2.740   0.156   0.606  1.00  0.00     0.067 C 
HETATM   14  C21 UNL     1      -1.898  -0.642  -0.075  1.00  0.00     0.044 C 
HETATM   15  N3  UNL     1      -1.814   2.698  -2.708  1.00  0.00    -0.381 N 
HETATM   16  H16 UNL     1      -1.828   3.310  -3.553  1.00  0.00     0.160 HD
ENDROOT
BRANCH   1  17
HETATM   17  C2  UNL     1       3.808   0.299   0.298  1.00  0.00     0.152 A 
HETATM   18  N1  UNL     1       4.158   0.896   1.592  1.00  0.00    -0.344 N 
HETATM   19  C1  UNL     1       5.057   0.024   2.265  1.00  0.00     0.253 A 
HETATM   20  H1  UNL     1       3.833   1.823   1.945  1.00  0.00     0.163 HD
HETATM   21  O1  UNL     1       5.551   0.257   3.399  1.00  0.00    -0.268 OA
HETATM   22  C27 UNL     1       5.306  -1.142   1.456  1.00  0.00     0.040 A 
HETATM   23  C22 UNL     1       4.577  -0.998   0.295  1.00  0.00    -0.015 A 
HETATM   24  C26 UNL     1       6.108  -2.257   1.693  1.00  0.00     0.017 A 
HETATM   25  C23 UNL     1       4.626  -1.975  -0.703  1.00  0.00     0.011 A 
HETATM   26  C24 UNL     1       5.425  -3.111  -0.490  1.00  0.00     0.001 A 
HETATM   27  C25 UNL     1       6.163  -3.252   0.703  1.00  0.00     0.001 A 
ENDBRANCH   1  17
BRANCH  13  28
HETATM   28  C15 UNL     1      -4.215   0.022   0.473  1.00  0.00    -0.007 A 
HETATM   29  C16 UNL     1      -4.821  -1.219   0.189  1.00  0.00     0.017 A 
HETATM   30  C17 UNL     1      -6.211  -1.319   0.072  1.00  0.00     0.043 A 
HETATM   31  C18 UNL     1      -7.012  -0.187   0.240  1.00  0.00     0.116 A 
HETATM   32  F1  UNL     1      -8.359  -0.287   0.126  1.00  0.00    -0.206 F 
HETATM   33  C19 UNL     1      -6.425   1.045   0.532  1.00  0.00     0.043 A 
HETATM   34  C20 UNL     1      -5.036   1.151   0.653  1.00  0.00     0.017 A 
ENDBRANCH  13  28
TORSDOF 2
