REMARK  2 active torsions:
REMARK  status: ('A' for Active; 'I' for Inactive)
REMARK    1  A    between atoms: C1_2  and  C2_3 
REMARK    2  A    between atoms: C1_2  and  C21_23 
ROOT
HETATM    1  O1  UNL     1       0.625   3.084   0.439  1.00  0.00    -0.287 OA
HETATM    2  C1  UNL     1       0.530   1.829   0.354  1.00  0.00     0.192 C 
ENDROOT
BRANCH   2   3
HETATM    3  C2  UNL     1       1.759   1.037   0.111  1.00  0.00     0.016 A 
HETATM    4  C3  UNL     1       1.749  -0.043  -0.771  1.00  0.00     0.016 A 
HETATM    5  C4  UNL     1       2.907  -0.782  -0.986  1.00  0.00     0.014 A 
HETATM    6  C5  UNL     1       4.126  -0.465  -0.336  1.00  0.00    -0.011 A 
HETATM    7  C6  UNL     1       4.170   0.704   0.474  1.00  0.00     0.027 A 
HETATM    8  C20 UNL     1       5.170  -1.425  -0.350  1.00  0.00    -0.014 A 
HETATM    9  C7  UNL     1       2.964   1.408   0.716  1.00  0.00     0.031 A 
HETATM   10  C8  UNL     1       5.344   1.238   1.039  1.00  0.00     0.194 C 
HETATM   11  O2  UNL     1       5.242   1.903   2.110  1.00  0.00    -0.287 OA
HETATM   12  C9  UNL     1       6.573   1.271   0.353  1.00  0.00     0.026 A 
HETATM   13  C10 UNL     1       7.363   2.438   0.502  1.00  0.00     0.016 A 
HETATM   14  C14 UNL     1       7.045   0.235  -0.497  1.00  0.00    -0.011 A 
HETATM   15  C11 UNL     1       8.515   2.636  -0.254  1.00  0.00     0.001 A 
HETATM   16  C12 UNL     1       8.914   1.675  -1.169  1.00  0.00     0.001 A 
HETATM   17  C13 UNL     1       8.198   0.486  -1.285  1.00  0.00     0.013 A 
HETATM   18  C15 UNL     1       6.555  -1.093  -0.422  1.00  0.00    -0.014 A 
HETATM   19  C16 UNL     1       7.503  -2.153  -0.449  1.00  0.00     0.013 A 
HETATM   20  C17 UNL     1       7.113  -3.487  -0.418  1.00  0.00     0.001 A 
HETATM   21  C18 UNL     1       5.768  -3.810  -0.355  1.00  0.00     0.001 A 
HETATM   22  C19 UNL     1       4.810  -2.800  -0.321  1.00  0.00     0.013 A 
ENDBRANCH   2   3
BRANCH   2  23
HETATM   23  C21 UNL     1      -0.804   1.195   0.509  1.00  0.00     0.015 A 
HETATM   24  C22 UNL     1      -0.931  -0.105   1.011  1.00  0.00     0.016 A 
HETATM   25  C23 UNL     1      -2.193  -0.671   1.193  1.00  0.00     0.014 A 
HETATM   26  C24 UNL     1      -3.377   0.045   0.899  1.00  0.00    -0.019 A 
HETATM   27  C25 UNL     1      -3.242   1.348   0.356  1.00  0.00    -0.046 A 
HETATM   28  C40 UNL     1      -4.694  -0.616   1.224  1.00  0.00    -0.014 C 
HETATM   29  C26 UNL     1      -1.964   1.910   0.181  1.00  0.00     0.023 A 
HETATM   30  C27 UNL     1      -4.420   2.101  -0.167  1.00  0.00     0.044 C 
HETATM   31  C28 UNL     1      -4.929   1.419  -1.448  1.00  0.00     0.044 C 
HETATM   32  C29 UNL     1      -6.336   0.978  -1.228  1.00  0.00    -0.047 A 
HETATM   33  C30 UNL     1      -7.375   1.780  -1.740  1.00  0.00     0.008 A 
HETATM   34  C34 UNL     1      -6.637  -0.110  -0.372  1.00  0.00    -0.019 A 
HETATM   35  C31 UNL     1      -8.705   1.516  -1.418  1.00  0.00     0.001 A 
HETATM   36  C32 UNL     1      -9.015   0.462  -0.565  1.00  0.00     0.001 A 
HETATM   37  C33 UNL     1      -7.997  -0.337  -0.044  1.00  0.00     0.013 A 
HETATM   38  C35 UNL     1      -5.605  -1.042   0.207  1.00  0.00    -0.014 C 
HETATM   39  C36 UNL     1      -5.996  -2.399   0.214  1.00  0.00     0.013 C 
HETATM   40  C37 UNL     1      -5.826  -3.180   1.357  1.00  0.00     0.001 C 
HETATM   41  C38 UNL     1      -5.255  -2.620   2.496  1.00  0.00     0.001 C 
HETATM   42  C39 UNL     1      -4.699  -1.342   2.435  1.00  0.00     0.013 C 
ENDBRANCH   2  23
TORSDOF 2
