REMARK  3 active torsions:
REMARK  status: ('A' for Active; 'I' for Inactive)
REMARK    1  A    between atoms: C6_7  and  C7_8 
REMARK    2  A    between atoms: C10_11  and  C11_12 
REMARK    3  A    between atoms: C14_15  and  C15_16 
REMARK       I    between atoms: C15_16  and  N2_18 
ROOT
HETATM    1  N1  UNL     1      -9.739  -2.178   1.741  1.00  0.00    -0.191 NA
HETATM    2  C1  UNL     1      -9.031  -1.394   1.268  1.00  0.00     0.099 C 
HETATM    3  C2  UNL     1      -8.150  -0.419   0.679  1.00  0.00     0.045 A 
HETATM    4  C3  UNL     1      -8.674   0.759   0.134  1.00  0.00     0.023 A 
HETATM    5  C4  UNL     1      -7.819   1.709  -0.430  1.00  0.00     0.002 A 
HETATM    6  C5  UNL     1      -6.440   1.486  -0.454  1.00  0.00     0.012 A 
HETATM    7  C6  UNL     1      -5.901   0.304   0.084  1.00  0.00    -0.021 A 
HETATM    8  C25 UNL     1      -6.768  -0.645   0.656  1.00  0.00     0.035 A 
ENDROOT
BRANCH   7   9
HETATM    9  C7  UNL     1      -4.436   0.072   0.063  1.00  0.00     0.013 A 
HETATM   10  C8  UNL     1      -3.558   1.092   0.466  1.00  0.00     0.016 A 
HETATM   11  C9  UNL     1      -2.177   0.886   0.457  1.00  0.00     0.013 A 
HETATM   12  C10 UNL     1      -1.641  -0.344   0.040  1.00  0.00    -0.023 A 
HETATM   13  C23 UNL     1      -2.518  -1.363  -0.370  1.00  0.00     0.055 A 
HETATM   14  C24 UNL     1      -3.902  -1.160  -0.360  1.00  0.00     0.128 A 
HETATM   15  F1  UNL     1      -4.714  -2.157  -0.795  1.00  0.00    -0.205 F 
BRANCH  12  16
HETATM   16  C11 UNL     1      -0.171  -0.563   0.030  1.00  0.00    -0.026 A 
HETATM   17  C12 UNL     1       0.629  -0.085   1.083  1.00  0.00     0.013 A 
HETATM   18  C13 UNL     1       2.011  -0.290   1.073  1.00  0.00     0.018 A 
HETATM   19  C14 UNL     1       2.624  -0.966   0.006  1.00  0.00     0.032 A 
HETATM   20  C21 UNL     1       1.825  -1.458  -1.038  1.00  0.00     0.018 A 
HETATM   21  C22 UNL     1       0.442  -1.255  -1.029  1.00  0.00     0.013 A 
BRANCH  19  22
HETATM   22  C15 UNL     1       4.088  -1.194  -0.006  1.00  0.00     0.254 C 
HETATM   23  O1  UNL     1       4.539  -2.241  -0.546  1.00  0.00    -0.267 OA
HETATM   24  N2  UNL     1       5.005  -0.252   0.587  1.00  0.00    -0.339 N 
HETATM   25  C16 UNL     1       4.781   1.197   0.438  1.00  0.00     0.152 C 
HETATM   26  C20 UNL     1       6.245  -0.746   1.195  1.00  0.00     0.206 C 
HETATM   27  C17 UNL     1       6.064   1.950   0.058  1.00  0.00     0.188 C 
HETATM   28  O2  UNL     1       6.753   1.274  -0.981  1.00  0.00    -0.382 OA
HETATM   29  C18 UNL     1       7.826   0.502  -0.471  1.00  0.00     0.247 C 
HETATM   30  C19 UNL     1       7.336  -0.776   0.162  1.00  0.00     0.168 C 
HETATM   31  O3  UNL     1       7.845  -1.841  -0.150  1.00  0.00    -0.294 OA
ENDBRANCH  19  22
ENDBRANCH  12  16
ENDBRANCH   7   9
TORSDOF 3
