REMARK  3 active torsions:
REMARK  status: ('A' for Active; 'I' for Inactive)
REMARK    1  A    between atoms: O1_2  and  C2_3 
REMARK    2  A    between atoms: C14_17  and  O3_18 
REMARK    3  A    between atoms: O3_18  and  C15_19 
ROOT
HETATM    1  C2  UNL     1       0.406   1.253   0.679  1.00  0.00     0.102 C 
HETATM    2  C3  UNL     1      -0.832   1.410   1.244  1.00  0.00     0.047 C 
HETATM    3  C4  UNL     1      -1.879   0.404   1.548  1.00  0.00    -0.050 C 
HETATM    4  C5  UNL     1      -1.617  -0.491   2.516  1.00  0.00     0.009 C 
HETATM    5  C6  UNL     1      -0.423  -1.286   2.271  1.00  0.00     0.017 C 
HETATM    6  C7  UNL     1      -0.325  -1.808   1.038  1.00  0.00     0.035 C 
HETATM    7  C8  UNL     1      -1.475  -2.503   0.382  1.00  0.00     0.253 C 
HETATM    8  O2  UNL     1      -1.544  -3.758   0.452  1.00  0.00    -0.267 OA
HETATM    9  N1  UNL     1      -2.542  -1.776  -0.271  1.00  0.00    -0.347 N 
HETATM   10  C9  UNL     1      -2.263  -0.806  -1.331  1.00  0.00     0.127 C 
HETATM   11  C10 UNL     1      -2.796   0.541  -0.810  1.00  0.00     0.031 C 
HETATM   12  C11 UNL     1      -3.134   0.277   0.672  1.00  0.00     0.038 C 
HETATM   13  C12 UNL     1      -3.579  -1.186   0.560  1.00  0.00     0.135 C 
HETATM   14  C13 UNL     1       0.705  -1.270   0.157  1.00  0.00     0.056 C 
HETATM   15  C14 UNL     1       1.008   0.047  -0.015  1.00  0.00     0.103 C 
ENDROOT
BRANCH  15  16
HETATM   16  O3  UNL     1       2.010   0.408  -0.941  1.00  0.00    -0.344 OA
BRANCH  16  17
HETATM   17  C15 UNL     1       2.926  -0.454  -1.626  1.00  0.00     0.121 C 
HETATM   18  C16 UNL     1       3.964  -1.017  -0.647  1.00  0.00     0.040 C 
HETATM   19  C17 UNL     1       3.623   0.354  -2.720  1.00  0.00     0.040 C 
ENDBRANCH  16  17
ENDBRANCH  15  16
BRANCH   1  20
HETATM   20  O1  UNL     1       1.271   2.367   0.633  1.00  0.00    -0.353 OA
HETATM   21  C1  UNL     1       1.034   3.651   1.208  1.00  0.00     0.210 C 
ENDBRANCH   1  20
TORSDOF 3
