REMARK  9 active torsions:
REMARK  status: ('A' for Active; 'I' for Inactive)
REMARK    1  A    between atoms: C1_2  and  C2_3 
REMARK    2  A    between atoms: C1_2  and  C22_23 
REMARK    3  A    between atoms: C4_5  and  C21_22 
REMARK    4  A    between atoms: C9_10  and  C10_11 
REMARK    5  A    between atoms: C15_16  and  C16_17 
REMARK    6  A    between atoms: C25_26  and  C45_46 
REMARK    7  A    between atoms: C26_27  and  C28_29 
REMARK    8  A    between atoms: C33_34  and  C34_35 
REMARK    9  A    between atoms: C39_40  and  C40_41 
ROOT
HETATM    1  C22 UNL     1      -0.394  -1.442  -0.322  1.00  0.00     0.016 C 
HETATM    2  C23 UNL     1      -1.150  -2.619  -0.438  1.00  0.00     0.016 C 
HETATM    3  C24 UNL     1      -2.426  -2.696   0.089  1.00  0.00     0.014 C 
HETATM    4  C25 UNL     1      -2.989  -1.620   0.779  1.00  0.00    -0.014 C 
HETATM    5  C26 UNL     1      -2.231  -0.428   0.944  1.00  0.00    -0.013 C 
HETATM    6  C27 UNL     1      -0.904  -0.397   0.453  1.00  0.00     0.028 C 
ENDROOT
BRANCH   1   7
HETATM    7  C1  UNL     1       0.852  -1.354  -1.137  1.00  0.00     0.193 C 
HETATM    8  O1  UNL     1       0.823  -1.893  -2.272  1.00  0.00    -0.287 OA
BRANCH   7   9
HETATM    9  C2  UNL     1       2.066  -0.558  -0.784  1.00  0.00     0.027 C 
HETATM   10  C3  UNL     1       2.025   0.768  -0.952  1.00  0.00     0.028 C 
HETATM   11  C4  UNL     1       3.231   1.486  -1.402  1.00  0.00    -0.024 C 
HETATM   12  C5  UNL     1       3.632   1.385  -2.686  1.00  0.00     0.012 C 
HETATM   13  C6  UNL     1       3.151   0.378  -3.668  1.00  0.00     0.001 C 
HETATM   14  C7  UNL     1       3.193  -0.951  -3.476  1.00  0.00     0.001 C 
HETATM   15  C8  UNL     1       3.708  -1.610  -2.255  1.00  0.00     0.013 C 
HETATM   16  C9  UNL     1       3.371  -1.245  -0.998  1.00  0.00    -0.011 C 
BRANCH  11  17
HETATM   17  C21 UNL     1       4.265   1.866  -0.396  1.00  0.00    -0.015 C 
HETATM   18  C16 UNL     1       5.545   1.240  -0.436  1.00  0.00    -0.014 C 
HETATM   19  C17 UNL     1       6.673   2.038  -0.113  1.00  0.00     0.013 C 
HETATM   20  C18 UNL     1       6.505   3.236   0.602  1.00  0.00     0.001 C 
HETATM   21  C19 UNL     1       5.228   3.599   1.004  1.00  0.00     0.001 C 
HETATM   22  C20 UNL     1       4.102   2.991   0.422  1.00  0.00     0.013 C 
BRANCH  18  23
HETATM   23  C15 UNL     1       5.607  -0.285  -0.577  1.00  0.00    -0.014 C 
HETATM   24  C10 UNL     1       4.524  -1.053  -0.053  1.00  0.00    -0.014 C 
HETATM   25  C11 UNL     1       4.879  -2.090   0.834  1.00  0.00     0.013 C 
HETATM   26  C12 UNL     1       6.198  -2.594   0.815  1.00  0.00     0.001 C 
HETATM   27  C13 UNL     1       7.034  -2.222  -0.239  1.00  0.00     0.001 C 
HETATM   28  C14 UNL     1       6.781  -1.010  -0.901  1.00  0.00     0.013 C 
ENDBRANCH  18  23
ENDBRANCH  11  17
ENDBRANCH   7   9
ENDBRANCH   1   7
BRANCH   5  29
HETATM   29  C28 UNL     1      -2.769   0.749   1.665  1.00  0.00    -0.014 A 
HETATM   30  C29 UNL     1      -2.061   1.248   2.774  1.00  0.00     0.013 A 
HETATM   31  C30 UNL     1      -2.476   2.395   3.430  1.00  0.00     0.001 A 
HETATM   32  C31 UNL     1      -3.605   3.080   2.981  1.00  0.00     0.001 A 
HETATM   33  C32 UNL     1      -4.307   2.634   1.861  1.00  0.00     0.013 A 
HETATM   34  C33 UNL     1      -3.896   1.472   1.187  1.00  0.00    -0.014 A 
BRANCH  34  35
HETATM   35  C34 UNL     1      -4.554   1.145  -0.098  1.00  0.00    -0.014 A 
HETATM   36  C35 UNL     1      -4.580   2.140  -1.095  1.00  0.00     0.013 A 
HETATM   37  C36 UNL     1      -5.283   1.952  -2.277  1.00  0.00     0.001 A 
HETATM   38  C37 UNL     1      -6.000   0.778  -2.479  1.00  0.00     0.001 A 
HETATM   39  C38 UNL     1      -6.020  -0.205  -1.490  1.00  0.00     0.013 A 
HETATM   40  C39 UNL     1      -5.295  -0.049  -0.293  1.00  0.00    -0.014 A 
BRANCH  40  41
HETATM   41  C40 UNL     1      -5.447  -1.071   0.783  1.00  0.00    -0.014 A 
HETATM   42  C41 UNL     1      -6.745  -1.437   1.187  1.00  0.00     0.013 A 
HETATM   43  C42 UNL     1      -6.956  -2.474   2.098  1.00  0.00     0.001 A 
HETATM   44  C43 UNL     1      -5.873  -3.173   2.616  1.00  0.00     0.001 A 
HETATM   45  C44 UNL     1      -4.577  -2.823   2.242  1.00  0.00     0.013 A 
HETATM   46  C45 UNL     1      -4.348  -1.777   1.326  1.00  0.00    -0.014 A 
ENDBRANCH  40  41
ENDBRANCH  34  35
ENDBRANCH   5  29
TORSDOF 9
