REMARK  3 active torsions:
REMARK  status: ('A' for Active; 'I' for Inactive)
REMARK       I    between atoms: C1_2  and  N1_3 
REMARK    1  A    between atoms: C1_2  and  C20_26 
REMARK       I    between atoms: N1_3  and  C2_4 
REMARK    2  A    between atoms: C2_4  and  C3_6 
REMARK    3  A    between atoms: C5_8  and  C6_9 
ROOT
HETATM    1  O1  UNL     1       0.500   4.322   1.279  1.00  0.00    -0.267 OA
HETATM    2  C1  UNL     1       0.597   3.130   0.876  1.00  0.00     0.258 C 
HETATM    3  N1  UNL     1      -0.488   2.523   0.157  1.00  0.00    -0.289 N 
HETATM    4  C2  UNL     1      -1.855   2.957   0.260  1.00  0.00     0.259 C 
HETATM    5  O2  UNL     1      -2.121   4.119   0.676  1.00  0.00    -0.267 OA
HETATM    6  H1  UNL     1      -0.276   1.700  -0.449  1.00  0.00     0.172 HD
ENDROOT
BRANCH   2   7
HETATM    7  C20 UNL     1       1.835   2.364   1.150  1.00  0.00     0.033 A 
HETATM    8  C21 UNL     1       1.805   0.961   1.227  1.00  0.00     0.031 A 
HETATM    9  C22 UNL     1       2.973   0.231   1.492  1.00  0.00     0.003 A 
HETATM   10  C23 UNL     1       4.190   0.910   1.686  1.00  0.00     0.046 A 
HETATM   11  C38 UNL     1       2.886  -1.237   1.643  1.00  0.00    -0.013 A 
HETATM   12  C24 UNL     1       4.215   2.310   1.646  1.00  0.00     0.031 A 
HETATM   13  N2  UNL     1       5.394   0.198   1.999  1.00  0.00    -0.322 N 
HETATM   14  C25 UNL     1       3.050   3.032   1.378  1.00  0.00     0.019 A 
HETATM   15  C26 UNL     1       6.065  -0.645   1.052  1.00  0.00     0.257 C 
HETATM   16  H15 UNL     1       5.922   0.490   2.853  1.00  0.00     0.169 HD
HETATM   17  O3  UNL     1       7.198  -1.113   1.341  1.00  0.00    -0.267 OA
HETATM   18  C27 UNL     1       5.494  -0.922  -0.282  1.00  0.00     0.043 A 
HETATM   19  C28 UNL     1       6.219  -0.531  -1.420  1.00  0.00     0.018 A 
HETATM   20  C32 UNL     1       4.263  -1.600  -0.441  1.00  0.00    -0.009 A 
HETATM   21  C29 UNL     1       5.719  -0.785  -2.700  1.00  0.00     0.001 A 
HETATM   22  C30 UNL     1       4.499  -1.444  -2.857  1.00  0.00     0.001 A 
HETATM   23  C31 UNL     1       3.778  -1.857  -1.734  1.00  0.00     0.013 A 
HETATM   24  C33 UNL     1       3.505  -2.112   0.722  1.00  0.00    -0.014 A 
HETATM   25  C34 UNL     1       3.360  -3.500   0.881  1.00  0.00     0.013 A 
HETATM   26  C35 UNL     1       2.621  -4.016   1.947  1.00  0.00     0.001 A 
HETATM   27  C36 UNL     1       2.012  -3.152   2.858  1.00  0.00     0.001 A 
HETATM   28  C37 UNL     1       2.140  -1.769   2.706  1.00  0.00     0.013 A 
ENDBRANCH   2   7
BRANCH   4  29
HETATM   29  C3  UNL     1      -2.966   2.047  -0.116  1.00  0.00     0.044 C 
HETATM   30  C4  UNL     1      -2.818   0.723   0.108  1.00  0.00     0.030 C 
HETATM   31  C5  UNL     1      -3.812  -0.333  -0.206  1.00  0.00    -0.023 C 
HETATM   32  C12 UNL     1      -5.126  -0.171   0.034  1.00  0.00     0.068 C 
HETATM   33  C13 UNL     1      -5.707   1.091   0.601  1.00  0.00     0.290 C 
HETATM   34  F2  UNL     1      -7.053   0.882   0.857  1.00  0.00    -0.196 F 
HETATM   35  F3  UNL     1      -5.096   1.400   1.806  1.00  0.00    -0.196 F 
HETATM   36  C14 UNL     1      -5.501   2.213  -0.389  1.00  0.00     0.028 A 
HETATM   37  C15 UNL     1      -6.610   2.822  -1.013  1.00  0.00     0.014 A 
HETATM   38  C19 UNL     1      -4.191   2.636  -0.738  1.00  0.00    -0.008 A 
HETATM   39  C16 UNL     1      -6.429   3.835  -1.955  1.00  0.00     0.001 A 
HETATM   40  C17 UNL     1      -5.145   4.250  -2.297  1.00  0.00     0.001 A 
HETATM   41  C18 UNL     1      -4.036   3.656  -1.697  1.00  0.00     0.013 A 
BRANCH  31  42
HETATM   42  C6  UNL     1      -3.292  -1.638  -0.693  1.00  0.00    -0.023 A 
HETATM   43  C7  UNL     1      -3.797  -2.856  -0.194  1.00  0.00     0.012 A 
HETATM   44  C8  UNL     1      -3.276  -4.073  -0.646  1.00  0.00     0.004 A 
HETATM   45  C9  UNL     1      -2.251  -4.088  -1.596  1.00  0.00     0.042 A 
HETATM   46  C10 UNL     1      -1.740  -2.887  -2.094  1.00  0.00     0.117 A 
HETATM   47  F1  UNL     1      -0.739  -2.903  -3.011  1.00  0.00    -0.206 F 
HETATM   48  C11 UNL     1      -2.254  -1.668  -1.644  1.00  0.00     0.054 A 
ENDBRANCH  31  42
ENDBRANCH   4  29
TORSDOF 3
