REMARK  2 active torsions:
REMARK  status: ('A' for Active; 'I' for Inactive)
REMARK    1  A    between atoms: C5_5  and  C6_6 
REMARK    2  A    between atoms: C15_15  and  N1_16 
ROOT
HETATM    1  C6  UNL     1      -1.808   1.123  -0.551  1.00  0.00    -0.013 C 
HETATM    2  C7  UNL     1      -2.927   1.659  -1.199  1.00  0.00     0.014 C 
HETATM    3  C8  UNL     1      -3.141   3.030  -1.243  1.00  0.00     0.008 C 
HETATM    4  C9  UNL     1      -2.262   3.912  -0.607  1.00  0.00    -0.051 C 
HETATM    5  C10 UNL     1      -2.579   5.387  -0.637  1.00  0.00     0.049 C 
HETATM    6  C11 UNL     1      -1.106   3.401   0.039  1.00  0.00    -0.017 C 
HETATM    7  C12 UNL     1      -0.218   4.264   0.714  1.00  0.00     0.013 C 
HETATM    8  C13 UNL     1       0.935   3.773   1.314  1.00  0.00     0.003 C 
HETATM    9  C14 UNL     1       1.260   2.428   1.207  1.00  0.00     0.030 C 
HETATM   10  C15 UNL     1       0.417   1.535   0.533  1.00  0.00     0.042 C 
HETATM   11  C22 UNL     1      -0.829   1.997   0.008  1.00  0.00     0.012 C 
ENDROOT
BRANCH   1  12
HETATM   12  C5  UNL     1      -1.814  -0.340  -0.330  1.00  0.00    -0.022 A 
HETATM   13  C4  UNL     1      -1.773  -1.225  -1.418  1.00  0.00     0.013 A 
HETATM   14  C3  UNL     1      -1.831  -2.605  -1.206  1.00  0.00     0.011 A 
HETATM   15  C2  UNL     1      -1.953  -3.118   0.095  1.00  0.00    -0.023 A 
HETATM   16  C1  UNL     1      -2.035  -4.599   0.321  1.00  0.00     0.051 C 
HETATM   17  C24 UNL     1      -2.053  -2.230   1.179  1.00  0.00     0.123 A 
HETATM   18  C23 UNL     1      -1.983  -0.849   0.966  1.00  0.00     0.055 A 
HETATM   19  F1  UNL     1      -2.209  -2.699   2.443  1.00  0.00    -0.206 F 
ENDBRANCH   1  12
BRANCH  10  20
HETATM   20  N1  UNL     1       0.936   0.223   0.240  1.00  0.00    -0.378 N 
HETATM   21  C16 UNL     1       1.410  -0.015  -1.135  1.00  0.00     0.153 C 
HETATM   22  C17 UNL     1       1.907  -1.444  -1.393  1.00  0.00     0.291 C 
HETATM   23  N2  UNL     1       3.266  -1.628  -0.835  1.00  0.00     0.085 N 
HETATM   24  C18 UNL     1       4.007  -2.622  -1.632  1.00  0.00     0.309 C 
HETATM   25  C19 UNL     1       3.225  -2.064   0.576  1.00  0.00     0.273 C 
HETATM   26  C20 UNL     1       2.729  -0.949   1.504  1.00  0.00     0.050 C 
HETATM   27  C21 UNL     1       1.225  -0.694   1.355  1.00  0.00     0.125 C 
ENDBRANCH  10  20
TORSDOF 2
