REMARK  3 active torsions:
REMARK  status: ('A' for Active; 'I' for Inactive)
REMARK    1  A    between atoms: C7_7  and  C8_8 
REMARK       I    between atoms: C8_8  and  N1_10 
REMARK    2  A    between atoms: N2_14  and  C12_15 
REMARK    3  A    between atoms: C16_19  and  C17_20 
ROOT
HETATM    1  C8  UNL     1      -2.938   0.204  -1.154  1.00  0.00     0.254 C 
HETATM    2  O1  UNL     1      -2.550   0.725  -2.234  1.00  0.00    -0.267 OA
HETATM    3  N1  UNL     1      -2.062  -0.704  -0.453  1.00  0.00    -0.339 N 
HETATM    4  C9  UNL     1      -2.087  -0.759   1.024  1.00  0.00     0.128 C 
HETATM    5  C10 UNL     1      -0.717  -0.414   1.640  1.00  0.00     0.040 C 
HETATM    6  C11 UNL     1       0.203  -1.637   1.747  1.00  0.00     0.134 C 
HETATM    7  N2  UNL     1       0.614  -2.097   0.420  1.00  0.00    -0.317 N 
HETATM    8  C24 UNL     1      -0.412  -2.555  -0.464  1.00  0.00     0.242 C 
HETATM    9  O2  UNL     1      -0.707  -3.779  -0.511  1.00  0.00    -0.271 OA
HETATM   10  C25 UNL     1      -1.178  -1.555  -1.274  1.00  0.00     0.229 C 
ENDROOT
BRANCH   7  11
HETATM   11  C12 UNL     1       1.956  -1.918  -0.077  1.00  0.00     0.038 A 
HETATM   12  C13 UNL     1       2.538  -2.895  -0.903  1.00  0.00     0.030 A 
HETATM   13  C14 UNL     1       3.834  -2.727  -1.396  1.00  0.00     0.003 A 
HETATM   14  C15 UNL     1       4.566  -1.585  -1.069  1.00  0.00     0.012 A 
HETATM   15  C16 UNL     1       4.005  -0.592  -0.249  1.00  0.00    -0.024 A 
HETATM   16  C23 UNL     1       2.696  -0.763   0.240  1.00  0.00     0.042 A 
BRANCH  15  17
HETATM   17  C17 UNL     1       4.783   0.624   0.093  1.00  0.00    -0.023 A 
HETATM   18  C18 UNL     1       6.138   0.523   0.461  1.00  0.00     0.012 A 
HETATM   19  C19 UNL     1       6.870   1.671   0.780  1.00  0.00     0.004 A 
HETATM   20  C20 UNL     1       6.260   2.928   0.734  1.00  0.00     0.042 A 
HETATM   21  C21 UNL     1       4.913   3.039   0.376  1.00  0.00     0.117 A 
HETATM   22  F1  UNL     1       4.319   4.258   0.346  1.00  0.00    -0.206 F 
HETATM   23  C22 UNL     1       4.176   1.895   0.058  1.00  0.00     0.054 A 
ENDBRANCH  15  17
ENDBRANCH   7  11
BRANCH   1  24
HETATM   24  C7  UNL     1      -4.315   0.482  -0.672  1.00  0.00     0.038 A 
HETATM   25  C2  UNL     1      -4.886   1.779  -0.723  1.00  0.00    -0.046 A 
HETATM   26  C1  UNL     1      -4.108   2.971  -1.215  1.00  0.00     0.049 C 
HETATM   27  C3  UNL     1      -6.213   1.964  -0.298  1.00  0.00     0.007 A 
HETATM   28  C4  UNL     1      -6.957   0.891   0.194  1.00  0.00     0.001 A 
HETATM   29  C5  UNL     1      -6.392  -0.381   0.258  1.00  0.00     0.001 A 
HETATM   30  C6  UNL     1      -5.083  -0.586  -0.178  1.00  0.00     0.017 A 
ENDBRANCH   1  24
TORSDOF 3
