REMARK  3 active torsions:
REMARK  status: ('A' for Active; 'I' for Inactive)
REMARK    1  A    between atoms: C5_5  and  C6_6 
REMARK       I    between atoms: C6_6  and  N1_8 
REMARK    2  A    between atoms: N1_8  and  C8_10 
REMARK    3  A    between atoms: C15_17  and  C16_18 
ROOT
HETATM    1  C1  UNL     1      -0.440   2.937   2.004  1.00  0.00     0.049 C 
HETATM    2  C2  UNL     1       0.561   1.981   1.408  1.00  0.00    -0.051 A 
HETATM    3  C3  UNL     1       1.925   2.177   1.676  1.00  0.00     0.009 A 
HETATM    4  C4  UNL     1       2.885   1.302   1.168  1.00  0.00     0.017 A 
HETATM    5  C5  UNL     1       2.503   0.208   0.378  1.00  0.00     0.033 A 
HETATM    6  C14 UNL     1       1.144   0.026   0.077  1.00  0.00     0.029 A 
HETATM    7  C15 UNL     1       0.168   0.908   0.572  1.00  0.00    -0.019 A 
ENDROOT
BRANCH   7   8
HETATM    8  C16 UNL     1      -1.247   0.677   0.199  1.00  0.00    -0.025 A 
HETATM    9  C17 UNL     1      -1.968   1.658  -0.492  1.00  0.00     0.013 A 
HETATM   10  C18 UNL     1      -3.295   1.431  -0.859  1.00  0.00     0.014 A 
HETATM   11  C19 UNL     1      -3.929   0.211  -0.556  1.00  0.00    -0.017 A 
HETATM   12  C20 UNL     1      -3.199  -0.785   0.134  1.00  0.00    -0.037 A 
HETATM   13  C29 UNL     1      -5.341  -0.006  -0.992  1.00  0.00     0.001 A 
HETATM   14  C21 UNL     1      -1.866  -0.542   0.507  1.00  0.00     0.020 A 
HETATM   15  C22 UNL     1      -3.846  -2.084   0.516  1.00  0.00     0.142 C 
HETATM   16  C23 UNL     1      -4.904  -1.805   1.532  1.00  0.00     0.226 C 
HETATM   17  O2  UNL     1      -4.793  -2.282   2.693  1.00  0.00    -0.273 OA
HETATM   18  N2  UNL     1      -6.037  -0.992   1.206  1.00  0.00    -0.326 N 
HETATM   19  C24 UNL     1      -6.333  -0.551  -0.131  1.00  0.00     0.045 A 
HETATM   20  H20 UNL     1      -6.784  -0.899   1.932  1.00  0.00     0.169 HD
HETATM   21  C25 UNL     1      -7.661  -0.643  -0.578  1.00  0.00     0.030 A 
HETATM   22  C26 UNL     1      -8.008  -0.245  -1.869  1.00  0.00     0.002 A 
HETATM   23  C27 UNL     1      -7.035   0.262  -2.727  1.00  0.00     0.001 A 
HETATM   24  C28 UNL     1      -5.714   0.384  -2.293  1.00  0.00     0.014 A 
ENDBRANCH   7   8
BRANCH   5  25
HETATM   25  C6  UNL     1       3.522  -0.721  -0.166  1.00  0.00     0.258 C 
HETATM   26  O1  UNL     1       3.245  -1.436  -1.167  1.00  0.00    -0.267 OA
HETATM   27  N1  UNL     1       4.834  -0.812   0.417  1.00  0.00    -0.318 N 
HETATM   28  C7  UNL     1       4.958  -1.234   1.815  1.00  0.00     0.159 C 
BRANCH  27  29
HETATM   29  C8  UNL     1       5.999  -0.714  -0.431  1.00  0.00     0.037 A 
HETATM   30  C9  UNL     1       6.016   0.195  -1.507  1.00  0.00     0.029 A 
HETATM   31  C10 UNL     1       7.141   0.299  -2.330  1.00  0.00     0.002 A 
HETATM   32  C11 UNL     1       8.261  -0.500  -2.090  1.00  0.00     0.000 A 
HETATM   33  C12 UNL     1       8.259  -1.404  -1.025  1.00  0.00     0.002 A 
HETATM   34  C13 UNL     1       7.138  -1.509  -0.197  1.00  0.00     0.029 A 
ENDBRANCH  27  29
ENDBRANCH   5  25
TORSDOF 3
