REMARK  2 active torsions:
REMARK  status: ('A' for Active; 'I' for Inactive)
REMARK       I    between atoms: C1_2  and  N1_3 
REMARK    1  A    between atoms: C1_2  and  C22_25 
REMARK    2  A    between atoms: N1_3  and  C2_4 
ROOT
HETATM    1  C22 UNL     1      -1.037  -1.925   0.793  1.00  0.00     0.033 A 
HETATM    2  C23 UNL     1      -1.749  -1.193  -0.169  1.00  0.00     0.030 A 
HETATM    3  C24 UNL     1      -3.100  -1.469  -0.444  1.00  0.00    -0.010 A 
HETATM    4  C25 UNL     1      -3.777  -2.491   0.277  1.00  0.00     0.026 A 
HETATM    5  C26 UNL     1      -3.053  -3.198   1.257  1.00  0.00     0.017 A 
HETATM    6  C27 UNL     1      -1.712  -2.920   1.513  1.00  0.00     0.018 A 
HETATM    7  C28 UNL     1      -5.166  -2.963  -0.019  1.00  0.00     0.194 C 
HETATM    8  O3  UNL     1      -5.417  -4.187   0.165  1.00  0.00    -0.287 OA
HETATM    9  C29 UNL     1      -6.286  -2.127  -0.529  1.00  0.00     0.026 A 
HETATM   10  C30 UNL     1      -7.086  -2.672  -1.554  1.00  0.00     0.016 A 
HETATM   11  C31 UNL     1      -8.239  -2.019  -1.988  1.00  0.00     0.001 A 
HETATM   12  C32 UNL     1      -8.630  -0.822  -1.393  1.00  0.00     0.001 A 
HETATM   13  C33 UNL     1      -7.863  -0.270  -0.369  1.00  0.00     0.013 A 
HETATM   14  C34 UNL     1      -6.691  -0.906   0.073  1.00  0.00    -0.011 A 
HETATM   15  C35 UNL     1      -5.829  -0.159   1.010  1.00  0.00    -0.014 A 
HETATM   16  C36 UNL     1      -6.109  -0.141   2.382  1.00  0.00     0.013 A 
HETATM   17  C37 UNL     1      -5.356   0.672   3.236  1.00  0.00     0.001 A 
HETATM   18  C38 UNL     1      -4.339   1.484   2.719  1.00  0.00     0.001 A 
HETATM   19  C39 UNL     1      -4.065   1.481   1.348  1.00  0.00     0.013 A 
HETATM   20  C40 UNL     1      -4.809   0.662   0.492  1.00  0.00    -0.014 A 
HETATM   21  C41 UNL     1      -4.466   0.561  -0.938  1.00  0.00    -0.014 A 
HETATM   22  C42 UNL     1      -4.989   1.487  -1.850  1.00  0.00     0.013 A 
HETATM   23  C43 UNL     1      -4.808   1.295  -3.222  1.00  0.00     0.001 A 
HETATM   24  C44 UNL     1      -4.107   0.177  -3.689  1.00  0.00     0.001 A 
HETATM   25  C45 UNL     1      -3.577  -0.747  -2.783  1.00  0.00     0.013 A 
HETATM   26  C46 UNL     1      -3.771  -0.572  -1.406  1.00  0.00    -0.014 A 
ENDROOT
BRANCH   1  27
HETATM   27  C1  UNL     1       0.394  -1.639   1.076  1.00  0.00     0.256 C 
HETATM   28  O1  UNL     1       0.959  -2.210   2.049  1.00  0.00    -0.267 OA
HETATM   29  N1  UNL     1       1.159  -0.758   0.235  1.00  0.00    -0.323 N 
HETATM   30  H1  UNL     1       0.945  -0.750  -0.788  1.00  0.00     0.169 HD
BRANCH  29  31
HETATM   31  C2  UNL     1       2.271   0.027   0.700  1.00  0.00     0.035 A 
HETATM   32  C3  UNL     1       3.212   0.502  -0.222  1.00  0.00     0.042 A 
HETATM   33  C4  UNL     1       4.305   1.286   0.188  1.00  0.00    -0.009 A 
HETATM   34  C5  UNL     1       4.463   1.591   1.564  1.00  0.00     0.021 A 
HETATM   35  C21 UNL     1       5.213   1.804  -0.863  1.00  0.00    -0.014 A 
HETATM   36  C6  UNL     1       3.493   1.143   2.476  1.00  0.00     0.018 A 
HETATM   37  C8  UNL     1       5.585   2.407   2.099  1.00  0.00     0.164 C 
HETATM   38  C7  UNL     1       2.409   0.377   2.052  1.00  0.00     0.030 A 
HETATM   39  O2  UNL     1       5.323   3.330   2.918  1.00  0.00    -0.292 OA
HETATM   40  C9  UNL     1       7.025   2.185   1.716  1.00  0.00     0.123 C 
HETATM   41  C10 UNL     1       7.304   0.761   1.289  1.00  0.00    -0.040 A 
HETATM   42  C11 UNL     1       7.781  -0.169   2.229  1.00  0.00     0.008 A 
HETATM   43  C15 UNL     1       7.089   0.348  -0.046  1.00  0.00    -0.018 A 
HETATM   44  C12 UNL     1       8.070  -1.480   1.839  1.00  0.00     0.001 A 
HETATM   45  C13 UNL     1       7.883  -1.877   0.512  1.00  0.00     0.001 A 
HETATM   46  C14 UNL     1       7.393  -0.968  -0.430  1.00  0.00     0.013 A 
HETATM   47  C16 UNL     1       6.514   1.281  -1.034  1.00  0.00    -0.014 A 
HETATM   48  C17 UNL     1       7.292   1.702  -2.124  1.00  0.00     0.013 A 
HETATM   49  C18 UNL     1       6.791   2.642  -3.029  1.00  0.00     0.001 A 
HETATM   50  C19 UNL     1       5.510   3.169  -2.857  1.00  0.00     0.001 A 
HETATM   51  C20 UNL     1       4.720   2.744  -1.786  1.00  0.00     0.013 A 
ENDBRANCH  29  31
ENDBRANCH   1  27
TORSDOF 2
