REMARK  4 active torsions:
REMARK  status: ('A' for Active; 'I' for Inactive)
REMARK    1  A    between atoms: N1_1  and  C1_2 
REMARK    2  A    between atoms: C5_7  and  O1_8 
REMARK    3  A    between atoms: C7_10  and  C8_11 
REMARK       I    between atoms: C8_11  and  N3_13 
REMARK    4  A    between atoms: N3_13  and  C9_14 
ROOT
HETATM    1  C1  UNL     1      -5.523  -0.111  -1.522  1.00  0.00     0.155 A 
HETATM    2  N2  UNL     1      -4.726   0.050  -0.430  1.00  0.00    -0.228 NA
HETATM    3  C2  UNL     1      -3.419   0.409  -0.525  1.00  0.00     0.076 A 
HETATM    4  C3  UNL     1      -2.852   0.663  -1.785  1.00  0.00    -0.025 A 
HETATM    5  C4  UNL     1      -3.642   0.483  -2.926  1.00  0.00     0.050 A 
HETATM    6  C5  UNL     1      -4.980   0.094  -2.812  1.00  0.00     0.111 A 
HETATM    7  C6  UNL     1      -1.411   1.099  -1.910  1.00  0.00     0.060 C 
HETATM    8  C7  UNL     1      -0.451  -0.096  -2.091  1.00  0.00     0.116 C 
HETATM    9  C19 UNL     1      -0.769  -1.377  -1.314  1.00  0.00    -0.034 A 
HETATM   10  C20 UNL     1      -0.548  -2.594  -1.995  1.00  0.00     0.009 A 
HETATM   11  C21 UNL     1      -0.740  -3.823  -1.366  1.00  0.00     0.001 A 
HETATM   12  C22 UNL     1      -1.141  -3.870  -0.036  1.00  0.00     0.001 A 
HETATM   13  C23 UNL     1      -1.351  -2.689   0.669  1.00  0.00     0.013 A 
HETATM   14  C24 UNL     1      -1.170  -1.434   0.057  1.00  0.00    -0.018 A 
HETATM   15  C25 UNL     1      -1.453  -0.246   0.900  1.00  0.00    -0.013 A 
HETATM   16  C26 UNL     1      -0.666  -0.028   2.045  1.00  0.00     0.013 A 
HETATM   17  C27 UNL     1      -1.003   0.974   2.957  1.00  0.00     0.001 A 
HETATM   18  C28 UNL     1      -2.147   1.748   2.756  1.00  0.00     0.001 A 
HETATM   19  C29 UNL     1      -2.951   1.531   1.635  1.00  0.00     0.014 A 
HETATM   20  C30 UNL     1      -2.611   0.542   0.700  1.00  0.00     0.004 A 
ENDROOT
BRANCH   8  21
HETATM   21  C8  UNL     1       0.988   0.299  -1.871  1.00  0.00     0.231 C 
HETATM   22  O2  UNL     1       1.793   0.249  -2.841  1.00  0.00    -0.272 OA
HETATM   23  N3  UNL     1       1.451   0.723  -0.579  1.00  0.00    -0.324 N 
HETATM   24  H8  UNL     1       0.774   1.193   0.059  1.00  0.00     0.169 HD
BRANCH  23  25
HETATM   25  C9  UNL     1       2.813   0.591  -0.137  1.00  0.00     0.074 A 
HETATM   26  C10 UNL     1       3.619  -0.469  -0.588  1.00  0.00     0.034 A 
HETATM   27  C11 UNL     1       4.930  -0.610  -0.128  1.00  0.00     0.014 A 
HETATM   28  C12 UNL     1       5.455   0.298   0.801  1.00  0.00    -0.023 A 
HETATM   29  C13 UNL     1       6.772   0.160   1.267  1.00  0.00     0.012 A 
HETATM   30  C17 UNL     1       4.647   1.360   1.278  1.00  0.00     0.015 A 
HETATM   31  C14 UNL     1       7.286   1.067   2.197  1.00  0.00     0.001 A 
HETATM   32  C15 UNL     1       6.492   2.115   2.669  1.00  0.00     0.001 A 
HETATM   33  C16 UNL     1       5.179   2.264   2.214  1.00  0.00     0.015 A 
HETATM   34  C18 UNL     1       3.327   1.494   0.810  1.00  0.00     0.154 A 
HETATM   35  F1  UNL     1       2.543   2.508   1.261  1.00  0.00    -0.203 F 
ENDBRANCH  23  25
ENDBRANCH   8  21
BRANCH   6  36
HETATM   36  O1  UNL     1      -5.718  -0.073  -3.986  1.00  0.00    -0.357 OA
HETATM   37  H4  UNL     1      -6.682  -0.371  -4.009  1.00  0.00     0.218 HD
ENDBRANCH   6  36
BRANCH   1  38
HETATM   38  N1  UNL     1      -6.888  -0.492  -1.318  1.00  0.00    -0.382 N 
HETATM   39  H1  UNL     1      -7.570  -0.623  -2.093  1.00  0.00     0.157 HD
HETATM   40  H2  UNL     1      -7.238  -0.645  -0.345  1.00  0.00     0.157 HD
ENDBRANCH   1  38
TORSDOF 4
