REMARK  2 active torsions:
REMARK  status: ('A' for Active; 'I' for Inactive)
REMARK    1  A    between atoms: C2_2  and  C3_3 
REMARK    2  A    between atoms: C15_15  and  C16_16 
ROOT
HETATM    1  C3  UNL     1       4.193   1.121  -1.928  1.00  0.00    -0.058 A 
HETATM    2  C4  UNL     1       3.561   2.353  -1.733  1.00  0.00     0.007 A 
HETATM    3  C5  UNL     1       2.307   2.412  -1.128  1.00  0.00     0.008 A 
HETATM    4  C6  UNL     1       1.655   1.244  -0.696  1.00  0.00    -0.046 A 
HETATM    5  C7  UNL     1       2.301  -0.016  -0.870  1.00  0.00    -0.051 A 
HETATM    6  C8  UNL     1       3.568  -0.052  -1.485  1.00  0.00     0.014 A 
HETATM    7  C9  UNL     1       1.693  -1.332  -0.403  1.00  0.00     0.043 C 
HETATM    8  C10 UNL     1       1.486  -1.361   1.125  1.00  0.00     0.044 C 
HETATM    9  C11 UNL     1       0.076  -1.537   1.698  1.00  0.00    -0.046 A 
HETATM   10  C12 UNL     1       0.043  -2.101   2.990  1.00  0.00     0.008 A 
HETATM   11  C13 UNL     1      -1.130  -2.161   3.732  1.00  0.00     0.001 A 
HETATM   12  C14 UNL     1      -2.301  -1.620   3.227  1.00  0.00     0.013 A 
HETATM   13  C15 UNL     1      -2.324  -1.032   1.958  1.00  0.00    -0.014 A 
HETATM   14  C22 UNL     1      -1.146  -1.014   1.154  1.00  0.00    -0.007 A 
HETATM   15  C23 UNL     1      -1.301  -0.602  -0.270  1.00  0.00    -0.001 A 
HETATM   16  C24 UNL     1      -2.135  -1.378  -1.092  1.00  0.00     0.020 A 
HETATM   17  C25 UNL     1      -2.403  -0.990  -2.401  1.00  0.00     0.075 A 
HETATM   18  C26 UNL     1      -1.833   0.180  -2.895  1.00  0.00     0.245 A 
HETATM   19  O1  UNL     1      -2.073   0.545  -4.077  1.00  0.00    -0.268 OA
HETATM   20  N1  UNL     1      -1.011   0.924  -2.106  1.00  0.00    -0.326 N 
HETATM   21  C27 UNL     1      -0.722   0.567  -0.818  1.00  0.00     0.027 A 
HETATM   22  C28 UNL     1       0.286   1.386  -0.061  1.00  0.00     0.097 C 
HETATM   23  H23 UNL     1      -0.579   1.788  -2.508  1.00  0.00     0.169 HD
ENDROOT
BRANCH  13  24
HETATM   24  C16 UNL     1      -3.599  -0.423   1.499  1.00  0.00    -0.025 A 
HETATM   25  C17 UNL     1      -3.644   0.928   1.114  1.00  0.00     0.012 A 
HETATM   26  C18 UNL     1      -4.841   1.494   0.668  1.00  0.00     0.001 A 
HETATM   27  C19 UNL     1      -6.003   0.720   0.611  1.00  0.00     0.000 A 
HETATM   28  C20 UNL     1      -5.970  -0.621   1.003  1.00  0.00     0.001 A 
HETATM   29  C21 UNL     1      -4.774  -1.192   1.448  1.00  0.00     0.012 A 
ENDBRANCH  13  24
BRANCH   1  30
HETATM   30  C2  UNL     1       5.562   1.063  -2.551  1.00  0.00     0.034 C 
HETATM   31  C1  UNL     1       6.646   1.158  -1.483  1.00  0.00     0.010 C 
ENDBRANCH   1  30
TORSDOF 2
