REMARK  2 active torsions:
REMARK  status: ('A' for Active; 'I' for Inactive)
REMARK       I    between atoms: C2_2  and  N1_4 
REMARK    1  A    between atoms: N2_15  and  C12_16 
REMARK    2  A    between atoms: C12_16  and  C13_17 
ROOT
HETATM    1  C1  UNL     1      -2.538  -3.592  -0.519  1.00  0.00     0.117 C 
HETATM    2  C2  UNL     1      -2.810  -2.335   0.247  1.00  0.00     0.216 C 
HETATM    3  O1  UNL     1      -3.857  -2.273   0.950  1.00  0.00    -0.274 OA
HETATM    4  N1  UNL     1      -1.921  -1.198   0.183  1.00  0.00    -0.345 N 
HETATM    5  C3  UNL     1      -2.073  -0.108   1.151  1.00  0.00     0.167 C 
HETATM    6  C4  UNL     1      -3.070   0.901   0.644  1.00  0.00    -0.007 A 
HETATM    7  C5  UNL     1      -3.997   1.442   1.554  1.00  0.00     0.011 A 
HETATM    8  C6  UNL     1      -4.970   2.347   1.126  1.00  0.00     0.001 A 
HETATM    9  C7  UNL     1      -5.032   2.723  -0.214  1.00  0.00     0.003 A 
HETATM   10  C8  UNL     1      -4.113   2.205  -1.128  1.00  0.00     0.037 A 
HETATM   11  C9  UNL     1      -3.117   1.310  -0.717  1.00  0.00     0.078 A 
HETATM   12  O2  UNL     1      -2.221   0.863  -1.706  1.00  0.00    -0.334 OA
HETATM   13  C10 UNL     1      -0.908   0.335  -1.493  1.00  0.00     0.136 A 
HETATM   14  C11 UNL     1      -0.073   0.447  -2.768  1.00  0.00     0.315 A 
HETATM   15  N2  UNL     1       0.812   1.467  -2.191  1.00  0.00     0.100 N 
HETATM   16  C20 UNL     1       0.072   1.365  -0.924  1.00  0.00     0.315 A 
HETATM   17  C21 UNL     1      -0.892  -1.073  -0.858  1.00  0.00     0.168 C 
ENDROOT
BRANCH  15  18
HETATM   18  C12 UNL     1       2.249   1.091  -2.157  1.00  0.00     0.331 C 
BRANCH  18  19
HETATM   19  C13 UNL     1       2.622  -0.098  -1.293  1.00  0.00     0.059 A 
HETATM   20  C14 UNL     1       2.572  -1.428  -1.668  1.00  0.00     0.145 A 
HETATM   21  N3  UNL     1       3.011  -2.202  -0.654  1.00  0.00    -0.245 NA
HETATM   22  C15 UNL     1       3.329  -1.322   0.318  1.00  0.00     0.106 A 
HETATM   23  N4  UNL     1       3.142  -0.039  -0.049  1.00  0.00    -0.336 N 
HETATM   24  C19 UNL     1       3.951  -1.713   1.624  1.00  0.00     0.079 C 
HETATM   25  C16 UNL     1       3.425   1.136   0.785  1.00  0.00     0.130 C 
HETATM   26  C17 UNL     1       4.346   0.765   1.959  1.00  0.00     0.021 C 
HETATM   27  C18 UNL     1       3.892  -0.546   2.619  1.00  0.00     0.009 C 
ENDBRANCH  18  19
ENDBRANCH  15  18
TORSDOF 2
