REMARK  6 active torsions:
REMARK  status: ('A' for Active; 'I' for Inactive)
REMARK    1  A    between atoms: C2_2  and  N1_3 
REMARK    2  A    between atoms: C4_5  and  C5_6 
REMARK    3  A    between atoms: C5_6  and  C6_8 
REMARK    4  A    between atoms: C6_8  and  N2_9 
REMARK    5  A    between atoms: C8_11  and  C9_12 
REMARK    6  A    between atoms: C9_12  and  N3_13 
ROOT
HETATM    1  N2  UNL     1       0.842  -0.984   0.739  1.00  0.00    -0.344 N 
HETATM    2  C7  UNL     1      -0.047  -0.316   1.672  1.00  0.00     0.133 C 
HETATM    3  C8  UNL     1      -1.461  -0.405   1.045  1.00  0.00     0.030 C 
HETATM    4  C17 UNL     1      -1.273  -0.886  -0.412  1.00  0.00     0.110 C 
HETATM    5  C18 UNL     1       0.143  -1.299  -0.449  1.00  0.00     0.220 C 
HETATM    6  O3  UNL     1       0.686  -1.852  -1.442  1.00  0.00    -0.273 OA
ENDROOT
BRANCH   3   7
HETATM    7  C9  UNL     1      -2.217   0.933   1.142  1.00  0.00     0.132 C 
BRANCH   7   8
HETATM    8  N3  UNL     1      -3.578   0.825   0.587  1.00  0.00    -0.349 N 
HETATM    9  C10 UNL     1      -3.930   1.512  -0.638  1.00  0.00     0.224 C 
HETATM   10  O2  UNL     1      -3.052   2.131  -1.299  1.00  0.00    -0.273 OA
HETATM   11  C11 UNL     1      -5.352   1.539  -1.134  1.00  0.00     0.082 A 
HETATM   12  C12 UNL     1      -5.562   0.900  -2.504  1.00  0.00     0.020 A 
HETATM   13  C13 UNL     1      -6.066   0.191  -1.252  1.00  0.00     0.002 A 
HETATM   14  C14 UNL     1      -5.269  -1.055  -0.832  1.00  0.00     0.044 C 
HETATM   15  C15 UNL     1      -5.128  -1.151   0.694  1.00  0.00     0.188 C 
HETATM   16  F1  UNL     1      -4.278  -2.199   0.999  1.00  0.00    -0.248 F 
HETATM   17  C16 UNL     1      -4.622   0.143   1.372  1.00  0.00     0.162 C 
ENDBRANCH   7   8
ENDBRANCH   3   7
BRANCH   1  18
HETATM   18  C6  UNL     1       2.279  -1.158   0.944  1.00  0.00     0.209 C 
BRANCH  18  19
HETATM   19  C5  UNL     1       3.070  -0.160   0.141  1.00  0.00     0.180 C 
HETATM   20  O1  UNL     1       2.509   0.878  -0.303  1.00  0.00    -0.290 OA
BRANCH  19  21
HETATM   21  C4  UNL     1       4.512  -0.353  -0.088  1.00  0.00     0.048 A 
HETATM   22  C3  UNL     1       5.350   0.459  -0.825  1.00  0.00     0.129 A 
HETATM   23  N1  UNL     1       6.589  -0.063  -0.765  1.00  0.00    -0.281 N 
HETATM   24  N4  UNL     1       6.589  -1.154  -0.016  1.00  0.00    -0.184 NA
HETATM   25  C19 UNL     1       5.325  -1.359   0.406  1.00  0.00     0.155 A 
BRANCH  23  26
HETATM   26  C2  UNL     1       7.791   0.517  -1.356  1.00  0.00     0.146 C 
HETATM   27  C1  UNL     1       8.390   1.559  -0.419  1.00  0.00     0.028 C 
ENDBRANCH  23  26
ENDBRANCH  19  21
ENDBRANCH  18  19
ENDBRANCH   1  18
TORSDOF 6
