REMARK  4 active torsions:
REMARK  status: ('A' for Active; 'I' for Inactive)
REMARK    1  A    between atoms: C3_4  and  C4_5 
REMARK    2  A    between atoms: C11_12  and  C12_13 
REMARK       I    between atoms: C12_13  and  N1_15 
REMARK    3  A    between atoms: N1_15  and  C13_16 
REMARK    4  A    between atoms: C13_16  and  C14_17 
ROOT
HETATM    1  C12 UNL     1      -1.399   0.153  -0.928  1.00  0.00     0.254 C 
HETATM    2  O2  UNL     1      -1.251   0.640  -2.082  1.00  0.00    -0.268 OA
HETATM    3  N1  UNL     1      -0.250  -0.099  -0.109  1.00  0.00    -0.356 N 
HETATM    4  H10 UNL     1      -0.384  -0.276   0.910  1.00  0.00     0.162 HD
ENDROOT
BRANCH   1   5
HETATM    5  C11 UNL     1      -2.765  -0.110  -0.433  1.00  0.00     0.064 A 
HETATM    6  C2  UNL     1      -3.196  -1.063   0.480  1.00  0.00     0.065 A 
HETATM    7  C1  UNL     1      -2.367  -2.076   1.203  1.00  0.00     0.077 C 
HETATM    8  O1  UNL     1      -4.497  -0.970   0.630  1.00  0.00    -0.314 OA
HETATM    9  C3  UNL     1      -4.954  -0.016  -0.151  1.00  0.00     0.087 A 
HETATM   10  C10 UNL     1      -3.903   0.552  -0.854  1.00  0.00     0.057 A 
BRANCH   9  11
HETATM   11  C4  UNL     1      -6.386   0.354  -0.234  1.00  0.00    -0.002 A 
HETATM   12  C5  UNL     1      -6.834   1.384  -1.084  1.00  0.00     0.014 A 
HETATM   13  C6  UNL     1      -8.192   1.713  -1.143  1.00  0.00     0.001 A 
HETATM   14  C7  UNL     1      -9.116   1.021  -0.356  1.00  0.00     0.000 A 
HETATM   15  C8  UNL     1      -8.684  -0.001   0.491  1.00  0.00     0.001 A 
HETATM   16  C9  UNL     1      -7.328  -0.334   0.554  1.00  0.00     0.014 A 
ENDBRANCH   9  11
ENDBRANCH   1   5
BRANCH   3  17
HETATM   17  C13 UNL     1       1.103  -0.060  -0.668  1.00  0.00     0.129 C 
BRANCH  17  18
HETATM   18  C14 UNL     1       2.166  -0.353   0.413  1.00  0.00     0.037 C 
HETATM   19  C15 UNL     1       2.275   0.742   1.456  1.00  0.00     0.276 C 
HETATM   20  N2  UNL     1       3.560   0.566   2.125  1.00  0.00     0.088 N 
HETATM   21  C16 UNL     1       4.444  -0.155   1.195  1.00  0.00     0.225 C 
HETATM   22  H16 UNL     1       3.406  -0.032   2.972  1.00  0.00     0.316 HD
HETATM   23  C17 UNL     1       5.699   0.710   0.957  1.00  0.00     0.036 C 
HETATM   24  C22 UNL     1       3.614  -0.536  -0.069  1.00  0.00     0.026 C 
HETATM   25  C18 UNL     1       6.820  -0.004   0.189  1.00  0.00     0.002 C 
HETATM   26  C19 UNL     1       6.362  -0.768  -1.061  1.00  0.00     0.000 C 
HETATM   27  C20 UNL     1       5.378   0.015  -1.946  1.00  0.00     0.000 C 
HETATM   28  C21 UNL     1       3.974   0.285  -1.343  1.00  0.00     0.007 C 
ENDBRANCH  17  18
ENDBRANCH   3  17
TORSDOF 4
