REMARK  2 active torsions:
REMARK  status: ('A' for Active; 'I' for Inactive)
REMARK       I    between atoms: C1_2  and  N1_3 
REMARK    1  A    between atoms: C1_2  and  C22_27 
REMARK       I    between atoms: N1_3  and  C2_4 
REMARK    2  A    between atoms: C2_4  and  C3_6 
ROOT
HETATM    1  C3  UNL     1       1.690  -0.692   0.254  1.00  0.00     0.033 A 
HETATM    2  C4  UNL     1       2.859  -1.450   0.075  1.00  0.00     0.030 A 
HETATM    3  C5  UNL     1       3.869  -1.024  -0.803  1.00  0.00    -0.008 A 
HETATM    4  C6  UNL     1       3.712   0.191  -1.507  1.00  0.00     0.043 A 
HETATM    5  C7  UNL     1       2.544   0.944  -1.328  1.00  0.00     0.019 A 
HETATM    6  C8  UNL     1       1.546   0.513  -0.451  1.00  0.00     0.018 A 
HETATM    7  C9  UNL     1       4.725   0.674  -2.468  1.00  0.00     0.257 C 
HETATM    8  O3  UNL     1       4.379   0.897  -3.659  1.00  0.00    -0.267 OA
HETATM    9  N2  UNL     1       6.070   0.966  -2.065  1.00  0.00    -0.322 N 
HETATM   10  C10 UNL     1       6.480   0.969  -0.692  1.00  0.00     0.046 A 
HETATM   11  C11 UNL     1       6.831   2.183  -0.086  1.00  0.00     0.030 A 
HETATM   12  C12 UNL     1       7.266   2.209   1.241  1.00  0.00     0.002 A 
HETATM   13  C13 UNL     1       7.374   1.021   1.965  1.00  0.00     0.001 A 
HETATM   14  C14 UNL     1       7.050  -0.198   1.363  1.00  0.00     0.014 A 
HETATM   15  C15 UNL     1       6.601  -0.234   0.033  1.00  0.00     0.002 A 
HETATM   16  C16 UNL     1       6.336  -1.538  -0.610  1.00  0.00    -0.013 A 
HETATM   17  C17 UNL     1       7.400  -2.436  -0.790  1.00  0.00     0.013 A 
HETATM   18  C18 UNL     1       7.184  -3.681  -1.385  1.00  0.00     0.001 A 
HETATM   19  C19 UNL     1       5.901  -4.045  -1.797  1.00  0.00     0.001 A 
HETATM   20  C20 UNL     1       4.832  -3.166  -1.614  1.00  0.00     0.013 A 
HETATM   21  C21 UNL     1       5.036  -1.907  -1.026  1.00  0.00    -0.014 A 
HETATM   22  H5  UNL     1       6.696   1.434  -2.760  1.00  0.00     0.169 HD
ENDROOT
BRANCH   1  23
HETATM   23  C2  UNL     1       0.633  -1.166   1.179  1.00  0.00     0.258 C 
HETATM   24  N1  UNL     1      -0.746  -0.813   0.961  1.00  0.00    -0.289 N 
HETATM   25  C1  UNL     1      -1.812  -1.136   1.874  1.00  0.00     0.258 C 
HETATM   26  H1  UNL     1      -1.001  -0.378   0.047  1.00  0.00     0.172 HD
HETATM   27  O1  UNL     1      -1.586  -1.854   2.885  1.00  0.00    -0.267 OA
HETATM   28  O2  UNL     1       0.952  -1.909   2.147  1.00  0.00    -0.267 OA
BRANCH  25  29
HETATM   29  C22 UNL     1      -3.190  -0.651   1.628  1.00  0.00     0.033 A 
HETATM   30  C23 UNL     1      -3.420   0.558   0.950  1.00  0.00     0.025 A 
HETATM   31  C24 UNL     1      -4.728   1.014   0.714  1.00  0.00    -0.044 A 
HETATM   32  C25 UNL     1      -5.829   0.241   1.146  1.00  0.00    -0.017 A 
HETATM   33  C35 UNL     1      -4.945   2.318  -0.007  1.00  0.00     0.059 C 
HETATM   34  C26 UNL     1      -5.591  -0.958   1.839  1.00  0.00     0.014 A 
HETATM   35  C28 UNL     1      -7.227   0.667   0.864  1.00  0.00     0.001 A 
HETATM   36  C27 UNL     1      -4.289  -1.394   2.084  1.00  0.00     0.018 A 
HETATM   37  C29 UNL     1      -8.204   0.566   1.872  1.00  0.00     0.014 A 
HETATM   38  C33 UNL     1      -7.605   1.147  -0.415  1.00  0.00     0.039 A 
HETATM   39  C30 UNL     1      -9.531   0.916   1.614  1.00  0.00     0.001 A 
HETATM   40  C31 UNL     1      -9.903   1.363   0.346  1.00  0.00     0.002 A 
HETATM   41  C32 UNL     1      -8.947   1.471  -0.665  1.00  0.00     0.030 A 
HETATM   42  N3  UNL     1      -6.654   1.244  -1.489  1.00  0.00    -0.389 N 
HETATM   43  C34 UNL     1      -5.448   2.075  -1.433  1.00  0.00     0.124 C 
HETATM   44  H21 UNL     1      -6.993   1.001  -2.448  1.00  0.00     0.159 HD
ENDBRANCH  25  29
ENDBRANCH   1  23
TORSDOF 2
