REMARK  3 active torsions:
REMARK  status: ('A' for Active; 'I' for Inactive)
REMARK    1  A    between atoms: N1_14  and  C10_15 
REMARK    2  A    between atoms: C10_15  and  C11_16 
REMARK    3  A    between atoms: C13_18  and  C14_19 
REMARK       I    between atoms: C14_19  and  N2_20 
ROOT
HETATM    1  C1  UNL     1      -3.461  -1.029   0.998  1.00  0.00     0.049 C 
HETATM    2  C2  UNL     1      -2.767   0.210   0.499  1.00  0.00    -0.043 A 
HETATM    3  C3  UNL     1      -3.343   1.469   0.742  1.00  0.00     0.008 A 
HETATM    4  C4  UNL     1      -2.697   2.636   0.329  1.00  0.00     0.003 A 
HETATM    5  C5  UNL     1      -1.471   2.562  -0.335  1.00  0.00     0.032 A 
HETATM    6  C6  UNL     1      -0.875   1.317  -0.580  1.00  0.00     0.062 A 
HETATM    7  C7  UNL     1      -1.514   0.136  -0.151  1.00  0.00     0.034 A 
HETATM    8  S1  UNL     1      -0.672  -1.444  -0.383  1.00  0.00    -0.126 SA
HETATM    9  C8  UNL     1      -1.240  -1.736  -2.105  1.00  0.00     0.096 C 
HETATM   10  C9  UNL     1      -1.115  -0.531  -3.055  1.00  0.00     0.174 C 
HETATM   11  S2  UNL     1       0.403   0.393  -2.832  1.00  0.00     0.234 S 
HETATM   12  O1  UNL     1       0.544   1.385  -3.951  1.00  0.00    -0.205 OA
HETATM   13  O2  UNL     1       1.567  -0.557  -2.851  1.00  0.00    -0.205 OA
HETATM   14  N1  UNL     1       0.358   1.248  -1.315  1.00  0.00    -0.270 N 
ENDROOT
BRANCH  14  15
HETATM   15  C10 UNL     1       1.581   1.846  -0.777  1.00  0.00     0.187 C 
BRANCH  15  16
HETATM   16  C11 UNL     1       2.038   1.072   0.420  1.00  0.00     0.002 A 
HETATM   17  C12 UNL     1       2.766  -0.111   0.388  1.00  0.00     0.033 A 
HETATM   18  C13 UNL     1       2.924  -0.704   1.655  1.00  0.00     0.039 A 
HETATM   19  C15 UNL     1       2.311   0.024   2.679  1.00  0.00     0.067 A 
HETATM   20  S3  UNL     1       1.568   1.375   2.004  1.00  0.00    -0.104 SA
BRANCH  18  21
HETATM   21  C14 UNL     1       3.650  -1.979   1.850  1.00  0.00     0.249 C 
HETATM   22  N2  UNL     1       3.808  -2.567   3.144  1.00  0.00    -0.366 N 
HETATM   23  H14 UNL     1       3.367  -2.164   4.001  1.00  0.00     0.159 HD
HETATM   24  H15 UNL     1       4.351  -3.452   3.245  1.00  0.00     0.159 HD
HETATM   25  O3  UNL     1       4.130  -2.578   0.849  1.00  0.00    -0.268 OA
ENDBRANCH  18  21
ENDBRANCH  15  16
ENDBRANCH  14  15
TORSDOF 3
