REMARK  6 active torsions:
REMARK  status: ('A' for Active; 'I' for Inactive)
REMARK       I    between atoms: C1_2  and  N1_3 
REMARK    1  A    between atoms: C1_2  and  C16_22 
REMARK       I    between atoms: N1_3  and  C2_4 
REMARK    2  A    between atoms: C2_4  and  C3_6 
REMARK    3  A    between atoms: C19_25  and  C39_46 
REMARK    4  A    between atoms: C20_26  and  C22_28 
REMARK    5  A    between atoms: C27_33  and  C28_34 
REMARK    6  A    between atoms: C33_40  and  C34_41 
ROOT
HETATM    1  C16 UNL     1       1.500   2.288  -0.744  1.00  0.00     0.033 A 
HETATM    2  C17 UNL     1       2.509   3.265  -0.743  1.00  0.00     0.018 A 
HETATM    3  C18 UNL     1       3.695   3.061  -0.037  1.00  0.00     0.014 A 
HETATM    4  C19 UNL     1       3.908   1.868   0.667  1.00  0.00    -0.014 A 
HETATM    5  C20 UNL     1       2.910   0.870   0.661  1.00  0.00    -0.013 A 
HETATM    6  C21 UNL     1       1.714   1.088  -0.043  1.00  0.00     0.030 A 
ENDROOT
BRANCH   1   7
HETATM    7  C1  UNL     1       0.243   2.523  -1.495  1.00  0.00     0.258 C 
HETATM    8  O1  UNL     1       0.256   3.314  -2.478  1.00  0.00    -0.267 OA
HETATM    9  N1  UNL     1      -0.984   1.878  -1.105  1.00  0.00    -0.288 N 
HETATM   10  C2  UNL     1      -2.206   1.961  -1.860  1.00  0.00     0.275 C 
HETATM   11  H1  UNL     1      -1.013   1.388  -0.185  1.00  0.00     0.172 HD
HETATM   12  O2  UNL     1      -2.302   2.770  -2.823  1.00  0.00    -0.266 OA
BRANCH  10  13
HETATM   13  C3  UNL     1      -3.370   1.116  -1.505  1.00  0.00     0.106 A 
HETATM   14  C4  UNL     1      -4.664   1.539  -1.821  1.00  0.00     0.073 A 
HETATM   15  C5  UNL     1      -5.773   0.750  -1.506  1.00  0.00     0.087 A 
HETATM   16  C6  UNL     1      -5.579  -0.475  -0.805  1.00  0.00     0.076 A 
HETATM   17  O4  UNL     1      -7.012   1.253  -1.946  1.00  0.00    -0.350 OA
HETATM   18  C7  UNL     1      -4.244  -0.894  -0.572  1.00  0.00     0.260 A 
HETATM   19  C8  UNL     1      -6.706  -1.322  -0.295  1.00  0.00    -0.011 A 
HETATM   20  O3  UNL     1      -4.007  -2.026  -0.068  1.00  0.00    -0.267 OA
HETATM   21  N2  UNL     1      -3.194  -0.097  -0.913  1.00  0.00    -0.318 N 
HETATM   22  H3  UNL     1      -2.227  -0.454  -0.736  1.00  0.00     0.169 HD
HETATM   23  C9  UNL     1      -6.636  -1.852   1.012  1.00  0.00     0.013 A 
HETATM   24  C13 UNL     1      -7.832  -1.635  -1.090  1.00  0.00    -0.045 A 
HETATM   25  C10 UNL     1      -7.623  -2.715   1.491  1.00  0.00     0.001 A 
HETATM   26  C11 UNL     1      -8.706  -3.052   0.683  1.00  0.00     0.001 A 
HETATM   27  C12 UNL     1      -8.820  -2.505  -0.594  1.00  0.00     0.008 A 
HETATM   28  C14 UNL     1      -8.073  -0.912  -2.378  1.00  0.00     0.066 C 
HETATM   29  C15 UNL     1      -8.258   0.568  -2.053  1.00  0.00     0.180 C 
ENDBRANCH  10  13
ENDBRANCH   1   7
BRANCH   5  30
HETATM   30  C22 UNL     1       3.076  -0.393   1.415  1.00  0.00    -0.014 A 
HETATM   31  C23 UNL     1       2.223  -0.657   2.499  1.00  0.00     0.013 A 
HETATM   32  C24 UNL     1       2.337  -1.851   3.215  1.00  0.00     0.001 A 
HETATM   33  C25 UNL     1       3.294  -2.798   2.848  1.00  0.00     0.001 A 
HETATM   34  C26 UNL     1       4.141  -2.555   1.765  1.00  0.00     0.013 A 
HETATM   35  C27 UNL     1       4.045  -1.353   1.043  1.00  0.00    -0.014 A 
BRANCH  35  36
HETATM   36  C28 UNL     1       4.937  -1.142  -0.120  1.00  0.00    -0.011 A 
HETATM   37  C29 UNL     1       4.808  -1.981  -1.239  1.00  0.00     0.055 A 
HETATM   38  C30 UNL     1       5.651  -1.825  -2.342  1.00  0.00     0.117 A 
HETATM   39  F1  UNL     1       5.509  -2.632  -3.421  1.00  0.00    -0.206 F 
HETATM   40  C31 UNL     1       6.639  -0.839  -2.332  1.00  0.00     0.043 A 
HETATM   41  C32 UNL     1       6.786  -0.006  -1.221  1.00  0.00     0.016 A 
HETATM   42  C33 UNL     1       5.936  -0.142  -0.112  1.00  0.00    -0.014 A 
BRANCH  42  43
HETATM   43  C34 UNL     1       6.134   0.742   1.058  1.00  0.00    -0.014 A 
HETATM   44  C35 UNL     1       7.332   0.652   1.786  1.00  0.00     0.013 A 
HETATM   45  C36 UNL     1       7.562   1.492   2.878  1.00  0.00     0.001 A 
HETATM   46  C37 UNL     1       6.604   2.438   3.246  1.00  0.00     0.001 A 
HETATM   47  C38 UNL     1       5.414   2.547   2.524  1.00  0.00     0.013 A 
HETATM   48  C39 UNL     1       5.165   1.701   1.431  1.00  0.00    -0.014 A 
ENDBRANCH  42  43
ENDBRANCH  35  36
ENDBRANCH   5  30
TORSDOF 6
