REMARK  1 active torsions:
REMARK  status: ('A' for Active; 'I' for Inactive)
REMARK    1  A    between atoms: C11_11  and  N1_12 
ROOT
HETATM    1  N1  UNL     1       1.447   0.361  -0.299  1.00  0.00    -0.380 N 
HETATM    2  C12 UNL     1       0.791  -0.420  -1.349  1.00  0.00     0.124 C 
HETATM    3  C13 UNL     1      -0.458  -1.108  -0.789  1.00  0.00     0.038 C 
HETATM    4  C14 UNL     1      -1.418  -0.116  -0.066  1.00  0.00     0.035 C 
HETATM    5  C15 UNL     1      -0.619   0.652   1.025  1.00  0.00     0.038 C 
HETATM    6  C16 UNL     1       0.662   1.313   0.493  1.00  0.00     0.124 C 
HETATM    7  C17 UNL     1      -2.037   0.908  -1.073  1.00  0.00     0.096 C 
HETATM    8  C18 UNL     1      -2.813   0.249  -2.189  1.00  0.00     0.132 C 
HETATM    9  O1  UNL     1      -2.461   0.427  -3.345  1.00  0.00    -0.298 OA
HETATM   10  C19 UNL     1      -3.973  -0.671  -1.916  1.00  0.00     0.117 C 
HETATM   11  C20 UNL     1      -4.640  -0.381  -0.593  1.00  0.00    -0.037 A 
HETATM   12  C21 UNL     1      -5.992   0.007  -0.566  1.00  0.00     0.008 A 
HETATM   13  C22 UNL     1      -6.643   0.221   0.651  1.00  0.00     0.001 A 
HETATM   14  C23 UNL     1      -5.956   0.044   1.853  1.00  0.00     0.001 A 
HETATM   15  C24 UNL     1      -4.613  -0.338   1.842  1.00  0.00     0.016 A 
HETATM   16  C25 UNL     1      -3.939  -0.538   0.626  1.00  0.00     0.017 A 
HETATM   17  C26 UNL     1      -2.508  -0.917   0.656  1.00  0.00     0.169 C 
HETATM   18  O2  UNL     1      -2.171  -1.884   1.395  1.00  0.00    -0.291 OA
ENDROOT
BRANCH   1  19
HETATM   19  C11 UNL     1       2.884   0.396  -0.228  1.00  0.00     0.047 A 
HETATM   20  C2  UNL     1       3.626   1.186  -1.137  1.00  0.00    -0.035 A 
HETATM   21  C1  UNL     1       2.947   1.969  -2.229  1.00  0.00     0.050 C 
HETATM   22  C3  UNL     1       5.026   1.203  -1.059  1.00  0.00     0.010 A 
HETATM   23  C4  UNL     1       5.695   0.470  -0.081  1.00  0.00     0.013 A 
HETATM   24  C5  UNL     1       4.976  -0.312   0.831  1.00  0.00    -0.024 A 
HETATM   25  C6  UNL     1       5.654  -1.055   1.810  1.00  0.00     0.012 A 
HETATM   26  C10 UNL     1       3.561  -0.359   0.759  1.00  0.00     0.001 A 
HETATM   27  C7  UNL     1       4.941  -1.847   2.711  1.00  0.00     0.001 A 
HETATM   28  C8  UNL     1       3.549  -1.906   2.642  1.00  0.00     0.001 A 
HETATM   29  C9  UNL     1       2.860  -1.172   1.673  1.00  0.00     0.014 A 
ENDBRANCH   1  19
TORSDOF 1
