REMARK  3 active torsions:
REMARK  status: ('A' for Active; 'I' for Inactive)
REMARK    1  A    between atoms: C1_2  and  O2_3 
REMARK    2  A    between atoms: C1_2  and  C2_4 
REMARK    3  A    between atoms: C7_9  and  N1_10 
ROOT
HETATM    1  C2  UNL     1       5.610   0.373   0.602  1.00  0.00     0.038 A 
HETATM    2  C3  UNL     1       4.936   1.499   1.108  1.00  0.00     0.019 A 
HETATM    3  C4  UNL     1       3.542   1.576   1.059  1.00  0.00     0.013 A 
HETATM    4  C5  UNL     1       2.795   0.528   0.503  1.00  0.00    -0.024 A 
HETATM    5  C6  UNL     1       1.395   0.598   0.449  1.00  0.00     0.041 A 
HETATM    6  C7  UNL     1       0.649  -0.453  -0.110  1.00  0.00     0.030 A 
HETATM    7  C18 UNL     1       1.320  -1.578  -0.618  1.00  0.00     0.030 A 
HETATM    8  C19 UNL     1       2.714  -1.656  -0.568  1.00  0.00     0.014 A 
HETATM    9  C20 UNL     1       3.461  -0.608  -0.010  1.00  0.00    -0.025 A 
HETATM   10  C21 UNL     1       4.862  -0.679   0.043  1.00  0.00     0.030 A 
ENDROOT
BRANCH   6  11
HETATM   11  N1  UNL     1      -0.791  -0.379  -0.163  1.00  0.00    -0.380 N 
HETATM   12  C8  UNL     1      -1.499  -0.771  -1.389  1.00  0.00     0.127 C 
HETATM   13  C9  UNL     1      -2.617   0.220  -1.721  1.00  0.00     0.059 C 
HETATM   14  C10 UNL     1      -3.913  -0.020  -0.966  1.00  0.00    -0.050 A 
HETATM   15  C11 UNL     1      -5.110   0.261  -1.655  1.00  0.00     0.007 A 
HETATM   16  C15 UNL     1      -3.984  -0.405   0.408  1.00  0.00    -0.050 A 
HETATM   17  C12 UNL     1      -6.349   0.123  -1.032  1.00  0.00     0.001 A 
HETATM   18  C13 UNL     1      -6.420  -0.289   0.294  1.00  0.00     0.001 A 
HETATM   19  C14 UNL     1      -5.251  -0.556   1.006  1.00  0.00     0.007 A 
HETATM   20  C16 UNL     1      -2.780  -0.777   1.255  1.00  0.00     0.059 C 
HETATM   21  C17 UNL     1      -1.542   0.090   1.010  1.00  0.00     0.127 C 
ENDBRANCH   6  11
BRANCH   1  22
HETATM   22  C1  UNL     1       7.086   0.293   0.654  1.00  0.00     0.176 C 
HETATM   23  O1  UNL     1       7.760   1.234   1.155  1.00  0.00    -0.646 OA
BRANCH  22  24
HETATM   24  O2  UNL     1       7.748  -0.825   0.151  1.00  0.00    -0.773 OA
HETATM   25  H1  UNL     1       8.758  -0.889   0.183  1.00  0.00     0.167 HD
ENDBRANCH  22  24
ENDBRANCH   1  22
TORSDOF 3
