REMARK  3 active torsions:
REMARK  status: ('A' for Active; 'I' for Inactive)
REMARK    1  A    between atoms: N2_7  and  C6_8 
REMARK    2  A    between atoms: C6_8  and  C7_9 
REMARK       I    between atoms: C7_9  and  N3_11 
REMARK    3  A    between atoms: C17_22  and  C18_23 
ROOT
HETATM    1  C7  UNL     1       2.677  -0.265  -0.754  1.00  0.00     0.238 C 
HETATM    2  O1  UNL     1       3.127  -0.801  -1.803  1.00  0.00    -0.272 OA
HETATM    3  N3  UNL     1       1.417   0.398  -0.789  1.00  0.00    -0.348 N 
HETATM    4  C8  UNL     1       0.347   0.647  -1.775  1.00  0.00     0.142 A 
HETATM    5  C9  UNL     1      -0.570   1.400  -0.841  1.00  0.00     0.021 A 
HETATM    6  C10 UNL     1      -0.683   2.910  -1.203  1.00  0.00     0.048 C 
HETATM    7  C11 UNL     1      -1.666   3.643  -0.278  1.00  0.00     0.273 C 
HETATM    8  N4  UNL     1      -3.046   3.653  -0.808  1.00  0.00     0.088 N 
HETATM    9  C12 UNL     1      -4.002   4.030   0.245  1.00  0.00     0.310 C 
HETATM   10  C13 UNL     1      -3.461   2.406  -1.489  1.00  0.00     0.311 C 
HETATM   11  C14 UNL     1      -3.183   1.149  -0.691  1.00  0.00    -0.023 A 
HETATM   12  C15 UNL     1      -4.296   0.432  -0.219  1.00  0.00     0.010 A 
HETATM   13  C16 UNL     1      -4.150  -0.819   0.371  1.00  0.00     0.008 A 
HETATM   14  C17 UNL     1      -2.882  -1.409   0.481  1.00  0.00    -0.053 A 
HETATM   15  C21 UNL     1      -1.766  -0.688   0.035  1.00  0.00     0.016 A 
HETATM   16  C22 UNL     1      -1.872   0.622  -0.498  1.00  0.00    -0.038 A 
HETATM   17  C23 UNL     1       0.564   1.161   0.141  1.00  0.00     0.142 A 
ENDROOT
BRANCH   1  18
HETATM   18  C6  UNL     1       3.471  -0.284   0.520  1.00  0.00     0.233 C 
BRANCH  18  19
HETATM   19  N2  UNL     1       4.579  -1.244   0.444  1.00  0.00    -0.329 N 
HETATM   20  C2  UNL     1       4.536  -2.574   0.693  1.00  0.00     0.102 A 
HETATM   21  C1  UNL     1       3.319  -3.306   1.170  1.00  0.00     0.091 C 
HETATM   22  N1  UNL     1       5.725  -3.185   0.487  1.00  0.00    -0.246 NA
HETATM   23  C3  UNL     1       6.544  -2.194   0.075  1.00  0.00     0.143 A 
HETATM   24  C4  UNL     1       5.842  -1.008   0.036  1.00  0.00     0.027 A 
HETATM   25  C5  UNL     1       6.392   0.328  -0.361  1.00  0.00     0.070 C 
ENDBRANCH  18  19
ENDBRANCH   1  18
BRANCH  14  26
HETATM   26  C18 UNL     1      -2.643  -2.792   1.066  1.00  0.00     0.018 A 
HETATM   27  C19 UNL     1      -3.535  -3.220   2.224  1.00  0.00     0.010 A 
HETATM   28  C20 UNL     1      -3.722  -3.845   0.846  1.00  0.00     0.010 A 
ENDBRANCH  14  26
TORSDOF 3
