REMARK  2 active torsions:
REMARK  status: ('A' for Active; 'I' for Inactive)
REMARK    1  A    between atoms: C6_6  and  C7_7 
REMARK    2  A    between atoms: C15_17  and  C16_18 
ROOT
HETATM    1  C1  UNL     1       1.671   2.083   0.181  1.00  0.00     0.013 A 
HETATM    2  C2  UNL     1       0.449   2.733  -0.009  1.00  0.00     0.016 A 
HETATM    3  C3  UNL     1      -0.714   1.997  -0.279  1.00  0.00     0.008 A 
HETATM    4  C4  UNL     1      -0.634   0.599  -0.378  1.00  0.00     0.081 A 
HETATM    5  C5  UNL     1       0.589  -0.053  -0.181  1.00  0.00     0.050 A 
HETATM    6  C6  UNL     1       1.754   0.682   0.102  1.00  0.00    -0.023 A 
HETATM    7  O1  UNL     1      -1.774  -0.149  -0.679  1.00  0.00    -0.340 OA
HETATM    8  C15 UNL     1      -2.470  -0.885   0.325  1.00  0.00     0.162 C 
HETATM    9  C22 UNL     1      -3.604  -0.036   0.928  1.00  0.00     0.042 C 
HETATM   10  C23 UNL     1      -3.128   1.340   1.426  1.00  0.00     0.042 C 
HETATM   11  C24 UNL     1      -3.153   2.377   0.320  1.00  0.00    -0.047 A 
HETATM   12  C25 UNL     1      -4.363   3.046   0.061  1.00  0.00     0.008 A 
HETATM   13  C26 UNL     1      -4.437   4.029  -0.927  1.00  0.00     0.001 A 
HETATM   14  C27 UNL     1      -3.306   4.358  -1.673  1.00  0.00     0.001 A 
HETATM   15  C28 UNL     1      -2.100   3.697  -1.442  1.00  0.00     0.013 A 
HETATM   16  C29 UNL     1      -2.008   2.695  -0.459  1.00  0.00    -0.017 A 
ENDROOT
BRANCH   6  17
HETATM   17  C7  UNL     1       3.050  -0.012   0.312  1.00  0.00    -0.025 A 
HETATM   18  C8  UNL     1       3.106  -1.224   1.045  1.00  0.00     0.014 A 
HETATM   19  C9  UNL     1       4.329  -1.883   1.245  1.00  0.00     0.030 A 
HETATM   20  C10 UNL     1       5.481  -1.316   0.706  1.00  0.00     0.034 A 
HETATM   21  C11 UNL     1       5.444  -0.150  -0.001  1.00  0.00    -0.029 A 
HETATM   22  N1  UNL     1       6.792  -1.828   0.799  1.00  0.00    -0.389 N 
HETATM   23  C12 UNL     1       4.245   0.529  -0.217  1.00  0.00     0.021 A 
HETATM   24  C13 UNL     1       6.812   0.220  -0.462  1.00  0.00     0.060 A 
HETATM   25  C14 UNL     1       7.697  -0.926   0.092  1.00  0.00     0.124 A 
HETATM   26  H11 UNL     1       7.070  -2.707   1.289  1.00  0.00     0.159 HD
ENDBRANCH   6  17
BRANCH   8  27
HETATM   27  C16 UNL     1      -3.031  -2.152  -0.276  1.00  0.00    -0.029 A 
HETATM   28  C17 UNL     1      -3.680  -2.126  -1.524  1.00  0.00     0.010 A 
HETATM   29  C18 UNL     1      -4.221  -3.297  -2.063  1.00  0.00     0.001 A 
HETATM   30  C19 UNL     1      -4.127  -4.500  -1.360  1.00  0.00     0.000 A 
HETATM   31  C20 UNL     1      -3.496  -4.534  -0.114  1.00  0.00     0.001 A 
HETATM   32  C21 UNL     1      -2.954  -3.365   0.430  1.00  0.00     0.010 A 
ENDBRANCH   8  27
TORSDOF 2
