REMARK  4 active torsions:
REMARK  status: ('A' for Active; 'I' for Inactive)
REMARK       I    between atoms: C1_2  and  N1_3 
REMARK    1  A    between atoms: C1_2  and  C14_16 
REMARK    2  A    between atoms: N1_3  and  C2_4 
REMARK    3  A    between atoms: C6_8  and  C7_9 
REMARK    4  A    between atoms: C17_19  and  C18_20 
ROOT
HETATM    1  C14 UNL     1       0.311  -0.643   0.942  1.00  0.00     0.124 A 
HETATM    2  C15 UNL     1      -0.763  -0.764   1.837  1.00  0.00     0.038 A 
HETATM    3  C16 UNL     1      -2.065  -0.538   1.387  1.00  0.00     0.016 A 
HETATM    4  C17 UNL     1      -2.301  -0.195   0.046  1.00  0.00    -0.008 A 
HETATM    5  C28 UNL     1      -1.198  -0.088  -0.817  1.00  0.00     0.129 A 
HETATM    6  N3  UNL     1       0.061  -0.310  -0.354  1.00  0.00    -0.255 NA
ENDROOT
BRANCH   1   7
HETATM    7  C1  UNL     1       1.703  -0.879   1.383  1.00  0.00     0.274 C 
HETATM    8  O1  UNL     1       1.932  -1.218   2.576  1.00  0.00    -0.266 OA
HETATM    9  N1  UNL     1       2.796  -0.686   0.467  1.00  0.00    -0.322 N 
HETATM   10  H1  UNL     1       2.632  -0.099  -0.381  1.00  0.00     0.169 HD
BRANCH   9  11
HETATM   11  C2  UNL     1       4.136  -1.149   0.710  1.00  0.00     0.035 A 
HETATM   12  C3  UNL     1       4.383  -2.351   1.395  1.00  0.00     0.029 A 
HETATM   13  C4  UNL     1       5.693  -2.788   1.600  1.00  0.00     0.003 A 
HETATM   14  C5  UNL     1       6.768  -2.041   1.115  1.00  0.00     0.012 A 
HETATM   15  C6  UNL     1       6.543  -0.847   0.408  1.00  0.00    -0.024 A 
HETATM   16  C13 UNL     1       5.220  -0.414   0.205  1.00  0.00     0.042 A 
BRANCH  15  17
HETATM   17  C7  UNL     1       7.685  -0.056  -0.119  1.00  0.00    -0.026 A 
HETATM   18  C8  UNL     1       8.852   0.115   0.649  1.00  0.00     0.012 A 
HETATM   19  C9  UNL     1       9.926   0.860   0.151  1.00  0.00     0.001 A 
HETATM   20  C10 UNL     1       9.848   1.441  -1.117  1.00  0.00     0.000 A 
HETATM   21  C11 UNL     1       8.696   1.277  -1.889  1.00  0.00     0.001 A 
HETATM   22  C12 UNL     1       7.619   0.534  -1.396  1.00  0.00     0.012 A 
ENDBRANCH  15  17
ENDBRANCH   9  11
ENDBRANCH   1   7
BRANCH   4  23
HETATM   23  C18 UNL     1      -3.681   0.046  -0.448  1.00  0.00    -0.024 A 
HETATM   24  C19 UNL     1      -4.080  -0.429  -1.707  1.00  0.00     0.013 A 
HETATM   25  C20 UNL     1      -5.374  -0.195  -2.176  1.00  0.00     0.011 A 
HETATM   26  C21 UNL     1      -6.305   0.508  -1.393  1.00  0.00    -0.017 A 
HETATM   27  C22 UNL     1      -5.920   0.969  -0.115  1.00  0.00     0.018 A 
HETATM   28  C27 UNL     1      -7.656   0.848  -1.979  1.00  0.00     0.309 C 
HETATM   29  C23 UNL     1      -4.609   0.748   0.339  1.00  0.00     0.028 A 
HETATM   30  C24 UNL     1      -6.868   1.666   0.774  1.00  0.00     0.161 C 
HETATM   31  O2  UNL     1      -6.531   2.752   1.317  1.00  0.00    -0.292 OA
HETATM   32  C25 UNL     1      -8.204   1.061   1.093  1.00  0.00     0.114 C 
HETATM   33  C26 UNL     1      -9.167   1.141  -0.089  1.00  0.00     0.277 C 
HETATM   34  N2  UNL     1      -8.739   0.255  -1.182  1.00  0.00     0.087 N 
HETATM   35  H20 UNL     1      -9.564   0.132  -1.816  1.00  0.00     0.316 HD
ENDBRANCH   4  23
TORSDOF 4
