REMARK  2 active torsions:
REMARK  status: ('A' for Active; 'I' for Inactive)
REMARK    1  A    between atoms: C7_7  and  C8_8 
REMARK       I    between atoms: C8_8  and  N1_10 
REMARK       I    between atoms: N2_14  and  C12_15 
REMARK    2  A    between atoms: C12_15  and  C13_17 
ROOT
HETATM    1  C8  UNL     1      -3.134  -1.302  -0.165  1.00  0.00     0.254 C 
HETATM    2  O1  UNL     1      -3.070  -2.468  -0.643  1.00  0.00    -0.267 OA
HETATM    3  N1  UNL     1      -1.939  -0.668   0.335  1.00  0.00    -0.346 N 
HETATM    4  C9  UNL     1      -1.666   0.737   0.006  1.00  0.00     0.127 C 
HETATM    5  C10 UNL     1      -0.880   0.831  -1.310  1.00  0.00     0.040 C 
HETATM    6  C11 UNL     1       0.642   0.714  -1.108  1.00  0.00     0.127 C 
HETATM    7  N2  UNL     1       1.071  -0.466  -0.329  1.00  0.00    -0.350 N 
HETATM    8  C12 UNL     1       2.321  -0.431   0.399  1.00  0.00     0.230 C 
HETATM    9  O2  UNL     1       2.501  -1.220   1.368  1.00  0.00    -0.273 OA
HETATM   10  C21 UNL     1       0.235  -1.674  -0.236  1.00  0.00     0.145 C 
HETATM   11  C22 UNL     1      -0.839  -1.495   0.840  1.00  0.00     0.146 C 
ENDROOT
BRANCH   8  12
HETATM   12  C13 UNL     1       3.409   0.566   0.057  1.00  0.00     0.131 A 
HETATM   13  C14 UNL     1       3.361   1.810   0.993  1.00  0.00     0.138 A 
HETATM   14  N3  UNL     1       4.642   1.835   1.695  1.00  0.00    -0.388 N 
HETATM   15  C15 UNL     1       5.430   0.755   1.245  1.00  0.00     0.035 A 
HETATM   16  H17 UNL     1       4.933   2.547   2.399  1.00  0.00     0.159 HD
HETATM   17  C16 UNL     1       6.723   0.442   1.664  1.00  0.00     0.029 A 
HETATM   18  C20 UNL     1       4.774   0.007   0.308  1.00  0.00    -0.017 A 
HETATM   19  C17 UNL     1       7.352  -0.677   1.095  1.00  0.00     0.002 A 
HETATM   20  C18 UNL     1       6.683  -1.449   0.124  1.00  0.00     0.001 A 
HETATM   21  C19 UNL     1       5.382  -1.106  -0.280  1.00  0.00     0.010 A 
ENDBRANCH   8  12
BRANCH   1  22
HETATM   22  C7  UNL     1      -4.448  -0.622  -0.082  1.00  0.00     0.038 A 
HETATM   23  C2  UNL     1      -5.367  -0.622  -1.162  1.00  0.00    -0.046 A 
HETATM   24  C1  UNL     1      -5.038  -1.269  -2.482  1.00  0.00     0.049 C 
HETATM   25  C3  UNL     1      -6.619  -0.001  -0.999  1.00  0.00     0.007 A 
HETATM   26  C4  UNL     1      -6.948   0.632   0.201  1.00  0.00     0.001 A 
HETATM   27  C5  UNL     1      -6.035   0.650   1.255  1.00  0.00     0.001 A 
HETATM   28  C6  UNL     1      -4.793   0.027   1.116  1.00  0.00     0.017 A 
ENDBRANCH   1  22
TORSDOF 2
