REMARK  5 active torsions:
REMARK  status: ('A' for Active; 'I' for Inactive)
REMARK    1  A    between atoms: C4_5  and  C5_6 
REMARK       I    between atoms: C5_6  and  N2_8 
REMARK    2  A    between atoms: N2_8  and  C6_9 
REMARK       I    between atoms: N3_15  and  C12_16 
REMARK    3  A    between atoms: C12_16  and  C13_18 
REMARK    4  A    between atoms: C13_18  and  C14_19 
REMARK    5  A    between atoms: C17_22  and  O3_23 
ROOT
HETATM    1  C6  UNL     1      -0.704   0.919  -0.488  1.00  0.00     0.102 C 
HETATM    2  C7  UNL     1      -1.197   2.239   0.141  1.00  0.00     0.027 C 
HETATM    3  C8  UNL     1      -0.130   2.968   0.987  1.00  0.00     0.002 C 
HETATM    4  C9  UNL     1       0.554   4.146   0.259  1.00  0.00     0.002 C 
HETATM    5  C10 UNL     1       1.963   3.820  -0.262  1.00  0.00     0.020 C 
HETATM    6  C11 UNL     1       1.954   2.987  -1.548  1.00  0.00     0.126 C 
HETATM    7  N3  UNL     1       1.553   1.597  -1.285  1.00  0.00    -0.350 N 
HETATM    8  C12 UNL     1       2.531   0.672  -0.740  1.00  0.00     0.225 C 
HETATM    9  O2  UNL     1       3.642   1.115  -0.337  1.00  0.00    -0.273 OA
HETATM   10  C19 UNL     1       0.214   1.155  -1.703  1.00  0.00     0.150 C 
ENDROOT
BRANCH   8  11
HETATM   11  C13 UNL     1       2.323  -0.826  -0.740  1.00  0.00     0.162 C 
BRANCH  11  12
HETATM   12  C14 UNL     1       2.932  -1.459   0.478  1.00  0.00     0.043 A 
HETATM   13  C15 UNL     1       2.244  -1.469   1.700  1.00  0.00     0.030 A 
HETATM   14  C16 UNL     1       2.848  -2.041   2.822  1.00  0.00     0.040 A 
HETATM   15  C17 UNL     1       4.129  -2.587   2.721  1.00  0.00     0.083 A 
HETATM   16  C18 UNL     1       4.791  -2.548   1.487  1.00  0.00     0.153 A 
HETATM   17  N4  UNL     1       4.185  -1.989   0.406  1.00  0.00    -0.262 NA
BRANCH  15  18
HETATM   18  O3  UNL     1       4.732  -3.158   3.840  1.00  0.00    -0.359 OA
HETATM   19  H21 UNL     1       5.661  -3.560   3.793  1.00  0.00     0.217 HD
ENDBRANCH  15  18
ENDBRANCH  11  12
ENDBRANCH   8  11
BRANCH   1  20
HETATM   20  N2  UNL     1      -1.863   0.126  -0.913  1.00  0.00    -0.350 N 
HETATM   21  C5  UNL     1      -2.521  -0.802  -0.035  1.00  0.00     0.260 C 
HETATM   22  O1  UNL     1      -2.138  -0.915   1.161  1.00  0.00    -0.267 OA
HETATM   23  H5  UNL     1      -2.309   0.364  -1.828  1.00  0.00     0.163 HD
BRANCH  21  24
HETATM   24  C4  UNL     1      -3.655  -1.622  -0.503  1.00  0.00     0.091 A 
HETATM   25  C3  UNL     1      -4.117  -1.753  -1.812  1.00  0.00     0.142 A 
HETATM   26  N1  UNL     1      -5.193  -2.572  -1.958  1.00  0.00    -0.257 NA
HETATM   27  C2  UNL     1      -5.583  -3.110  -0.782  1.00  0.00     0.071 A 
HETATM   28  C1  UNL     1      -6.782  -3.980  -0.633  1.00  0.00     0.078 C 
HETATM   29  S1  UNL     1      -4.629  -2.570   0.492  1.00  0.00    -0.068 SA
ENDBRANCH  21  24
ENDBRANCH   1  20
TORSDOF 5
