REMARK  4 active torsions:
REMARK  status: ('A' for Active; 'I' for Inactive)
REMARK    1  A    between atoms: C1_2  and  C2_3 
REMARK    2  A    between atoms: C1_2  and  C24_25 
REMARK    3  A    between atoms: C4_5  and  C5_6 
REMARK    4  A    between atoms: C9_10  and  C10_11 
ROOT
HETATM    1  O1  UNL     1      -0.143   2.046  -3.043  1.00  0.00    -0.287 OA
HETATM    2  C1  UNL     1      -0.429   1.811  -1.837  1.00  0.00     0.193 C 
ENDROOT
BRANCH   2   3
HETATM    3  C2  UNL     1       0.676   1.494  -0.901  1.00  0.00     0.027 A 
HETATM    4  C3  UNL     1       1.512   0.413  -1.217  1.00  0.00     0.028 A 
HETATM    5  C4  UNL     1       2.554   0.025  -0.362  1.00  0.00    -0.024 A 
HETATM    6  C17 UNL     1       2.760   0.732   0.831  1.00  0.00     0.024 A 
HETATM    7  C18 UNL     1       1.952   1.828   1.162  1.00  0.00    -0.024 A 
HETATM    8  C19 UNL     1       2.182   2.532   2.355  1.00  0.00     0.012 A 
HETATM    9  C23 UNL     1       0.910   2.233   0.288  1.00  0.00    -0.012 A 
HETATM   10  C20 UNL     1       1.401   3.641   2.680  1.00  0.00     0.001 A 
HETATM   11  C21 UNL     1       0.394   4.065   1.815  1.00  0.00     0.001 A 
HETATM   12  C22 UNL     1       0.151   3.376   0.624  1.00  0.00     0.013 A 
BRANCH   5  13
HETATM   13  C5  UNL     1       3.428  -1.122  -0.714  1.00  0.00    -0.025 A 
HETATM   14  C6  UNL     1       2.878  -2.306  -1.235  1.00  0.00     0.012 A 
HETATM   15  C7  UNL     1       3.704  -3.379  -1.571  1.00  0.00     0.002 A 
HETATM   16  C8  UNL     1       5.086  -3.286  -1.394  1.00  0.00     0.012 A 
HETATM   17  C9  UNL     1       5.660  -2.112  -0.876  1.00  0.00    -0.025 A 
HETATM   18  C16 UNL     1       4.821  -1.035  -0.537  1.00  0.00     0.024 A 
BRANCH  17  19
HETATM   19  C10 UNL     1       7.131  -2.005  -0.698  1.00  0.00    -0.026 A 
HETATM   20  C11 UNL     1       8.010  -2.525  -1.667  1.00  0.00     0.012 A 
HETATM   21  C12 UNL     1       9.394  -2.418  -1.499  1.00  0.00     0.001 A 
HETATM   22  C13 UNL     1       9.916  -1.795  -0.363  1.00  0.00     0.000 A 
HETATM   23  C14 UNL     1       9.055  -1.277   0.607  1.00  0.00     0.001 A 
HETATM   24  C15 UNL     1       7.671  -1.380   0.443  1.00  0.00     0.012 A 
ENDBRANCH  17  19
ENDBRANCH   5  13
ENDBRANCH   2   3
BRANCH   2  25
HETATM   25  C24 UNL     1      -1.852   1.818  -1.406  1.00  0.00     0.016 A 
HETATM   26  C25 UNL     1      -2.246   1.222  -0.197  1.00  0.00     0.028 A 
HETATM   27  C26 UNL     1      -3.584   1.255   0.230  1.00  0.00    -0.010 A 
HETATM   28  C27 UNL     1      -4.561   1.882  -0.585  1.00  0.00     0.021 A 
HETATM   29  C43 UNL     1      -3.888   0.669   1.559  1.00  0.00    -0.014 A 
HETATM   30  C28 UNL     1      -4.159   2.468  -1.797  1.00  0.00     0.017 A 
HETATM   31  C30 UNL     1      -5.996   1.990  -0.212  1.00  0.00     0.164 C 
HETATM   32  C29 UNL     1      -2.826   2.432  -2.205  1.00  0.00     0.016 A 
HETATM   33  O2  UNL     1      -6.580   3.095  -0.378  1.00  0.00    -0.292 OA
HETATM   34  C31 UNL     1      -6.799   0.844   0.342  1.00  0.00     0.123 C 
HETATM   35  C32 UNL     1      -6.302  -0.496  -0.149  1.00  0.00    -0.040 A 
HETATM   36  C33 UNL     1      -6.873  -1.077  -1.293  1.00  0.00     0.008 A 
HETATM   37  C37 UNL     1      -5.252  -1.166   0.517  1.00  0.00    -0.018 A 
HETATM   38  C34 UNL     1      -6.431  -2.321  -1.749  1.00  0.00     0.001 A 
HETATM   39  C35 UNL     1      -5.412  -2.994  -1.072  1.00  0.00     0.001 A 
HETATM   40  C36 UNL     1      -4.824  -2.420   0.058  1.00  0.00     0.013 A 
HETATM   41  C38 UNL     1      -4.594  -0.548   1.684  1.00  0.00    -0.014 A 
HETATM   42  C39 UNL     1      -4.728  -1.148   2.946  1.00  0.00     0.013 A 
HETATM   43  C40 UNL     1      -4.174  -0.544   4.077  1.00  0.00     0.001 A 
HETATM   44  C41 UNL     1      -3.478   0.661   3.956  1.00  0.00     0.001 A 
HETATM   45  C42 UNL     1      -3.327   1.260   2.704  1.00  0.00     0.013 A 
ENDBRANCH   2  25
TORSDOF 4
