REMARK  6 active torsions:
REMARK  status: ('A' for Active; 'I' for Inactive)
REMARK       I    between atoms: C1_2  and  N1_3 
REMARK    1  A    between atoms: C1_2  and  C26_31 
REMARK       I    between atoms: N1_3  and  C2_4 
REMARK    2  A    between atoms: C2_4  and  C3_6 
REMARK    3  A    between atoms: C5_8  and  C25_30 
REMARK    4  A    between atoms: C6_9  and  C8_13 
REMARK    5  A    between atoms: C13_18  and  C14_19 
REMARK    6  A    between atoms: C19_24  and  C20_25 
ROOT
HETATM    1  C3  UNL     1       0.191  -0.041  -2.766  1.00  0.00     0.104 C 
HETATM    2  C4  UNL     1      -1.019  -0.738  -2.836  1.00  0.00     0.048 C 
HETATM    3  C5  UNL     1      -2.090  -0.442  -1.952  1.00  0.00    -0.006 C 
HETATM    4  C6  UNL     1      -1.966   0.726  -1.157  1.00  0.00     0.054 C 
HETATM    5  C7  UNL     1      -0.678   1.310  -1.023  1.00  0.00     0.258 C 
HETATM    6  O3  UNL     1      -0.481   2.224  -0.178  1.00  0.00    -0.267 OA
HETATM    7  N2  UNL     1       0.352   0.912  -1.813  1.00  0.00    -0.318 N 
HETATM    8  H3  UNL     1       1.274   1.389  -1.702  1.00  0.00     0.169 HD
ENDROOT
BRANCH   1   9
HETATM    9  C2  UNL     1       1.333  -0.440  -3.616  1.00  0.00     0.275 C 
HETATM   10  N1  UNL     1       2.665  -0.136  -3.199  1.00  0.00    -0.288 N 
HETATM   11  C1  UNL     1       3.291  -0.979  -2.222  1.00  0.00     0.260 C 
HETATM   12  H1  UNL     1       3.024   0.813  -3.435  1.00  0.00     0.172 HD
HETATM   13  O1  UNL     1       3.253  -2.231  -2.396  1.00  0.00    -0.267 OA
HETATM   14  O2  UNL     1       1.146  -1.050  -4.703  1.00  0.00    -0.266 OA
BRANCH  11  15
HETATM   15  C26 UNL     1       3.962  -0.449  -0.999  1.00  0.00     0.059 C 
HETATM   16  C27 UNL     1       4.224   0.880  -0.839  1.00  0.00     0.031 C 
HETATM   17  C28 UNL     1       4.885   1.626   0.312  1.00  0.00    -0.023 A 
HETATM   18  C29 UNL     1       4.896   3.032   0.191  1.00  0.00     0.012 A 
HETATM   19  C33 UNL     1       5.510   1.063   1.483  1.00  0.00     0.001 A 
HETATM   20  C30 UNL     1       5.521   3.843   1.146  1.00  0.00     0.001 A 
HETATM   21  C31 UNL     1       6.166   3.275   2.244  1.00  0.00     0.001 A 
HETATM   22  C32 UNL     1       6.155   1.896   2.415  1.00  0.00     0.014 A 
HETATM   23  C34 UNL     1       5.477  -0.378   1.762  1.00  0.00     0.043 C 
HETATM   24  C35 UNL     1       4.943  -0.850   2.899  1.00  0.00     0.030 C 
HETATM   25  N3  UNL     1       5.582  -1.239   0.653  1.00  0.00    -0.355 N 
HETATM   26  C36 UNL     1       4.343  -2.208   2.984  1.00  0.00     0.002 C 
HETATM   27  C37 UNL     1       3.637  -2.792   1.987  1.00  0.00     0.002 C 
HETATM   28  C38 UNL     1       3.399  -2.172   0.655  1.00  0.00     0.030 C 
HETATM   29  C39 UNL     1       4.325  -1.415   0.043  1.00  0.00     0.048 C 
HETATM   30  H25 UNL     1       6.410  -1.109   0.031  1.00  0.00     0.166 HD
ENDBRANCH  11  15
ENDBRANCH   1   9
BRANCH   3  31
HETATM   31  C25 UNL     1      -3.051  -1.555  -1.612  1.00  0.00    -0.014 C 
HETATM   32  C20 UNL     1      -3.470  -1.698  -0.272  1.00  0.00    -0.014 C 
HETATM   33  C21 UNL     1      -3.194  -2.915   0.384  1.00  0.00     0.013 C 
HETATM   34  C22 UNL     1      -2.894  -4.058  -0.367  1.00  0.00     0.001 C 
HETATM   35  C23 UNL     1      -2.902  -3.982  -1.760  1.00  0.00     0.001 C 
HETATM   36  C24 UNL     1      -3.014  -2.736  -2.387  1.00  0.00     0.013 C 
BRANCH  32  37
HETATM   37  C19 UNL     1      -4.773  -1.096   0.075  1.00  0.00    -0.014 A 
HETATM   38  C14 UNL     1      -4.931   0.250   0.471  1.00  0.00    -0.014 A 
HETATM   39  C15 UNL     1      -6.243   0.722   0.739  1.00  0.00     0.013 A 
HETATM   40  C16 UNL     1      -7.354  -0.110   0.624  1.00  0.00     0.001 A 
HETATM   41  C17 UNL     1      -7.187  -1.433   0.237  1.00  0.00     0.001 A 
HETATM   42  C18 UNL     1      -5.914  -1.920  -0.041  1.00  0.00     0.013 A 
BRANCH  38  43
HETATM   43  C13 UNL     1      -3.807   1.228   0.514  1.00  0.00    -0.014 C 
HETATM   44  C8  UNL     1      -3.127   1.545  -0.687  1.00  0.00    -0.009 C 
HETATM   45  C9  UNL     1      -3.086   2.902  -1.076  1.00  0.00     0.013 C 
HETATM   46  C10 UNL     1      -3.365   3.914  -0.153  1.00  0.00     0.001 C 
HETATM   47  C11 UNL     1      -3.703   3.577   1.156  1.00  0.00     0.001 C 
HETATM   48  C12 UNL     1      -3.911   2.237   1.494  1.00  0.00     0.013 C 
ENDBRANCH  38  43
ENDBRANCH  32  37
ENDBRANCH   3  31
TORSDOF 6
