REMARK  3 active torsions:
REMARK  status: ('A' for Active; 'I' for Inactive)
REMARK    1  A    between atoms: C4_4  and  N1_5 
REMARK       I    between atoms: N1_5  and  C5_6 
REMARK    2  A    between atoms: C5_6  and  C6_8 
REMARK    3  A    between atoms: C21_26  and  C22_27 
ROOT
HETATM    1  N1  UNL     1      -0.597   1.156   0.787  1.00  0.00    -0.323 N 
HETATM    2  C5  UNL     1       0.445   0.169   0.667  1.00  0.00     0.257 C 
HETATM    3  O1  UNL     1       0.145  -1.037   0.450  1.00  0.00    -0.267 OA
HETATM    4  H5  UNL     1      -0.354   2.119   1.108  1.00  0.00     0.169 HD
ENDROOT
BRANCH   2   5
HETATM    5  C6  UNL     1       1.875   0.538   0.802  1.00  0.00     0.050 A 
HETATM    6  C7  UNL     1       2.858  -0.207   0.133  1.00  0.00     0.033 A 
HETATM    7  C8  UNL     1       4.220   0.123   0.248  1.00  0.00     0.003 A 
HETATM    8  C9  UNL     1       4.573   1.214   1.068  1.00  0.00     0.054 A 
HETATM    9  C18 UNL     1       5.239  -0.664  -0.505  1.00  0.00     0.003 A 
HETATM   10  N2  UNL     1       3.606   1.908   1.726  1.00  0.00    -0.263 NA
HETATM   11  C11 UNL     1       6.003   1.595   1.279  1.00  0.00     0.163 C 
HETATM   12  C10 UNL     1       2.287   1.606   1.612  1.00  0.00     0.134 A 
HETATM   13  C12 UNL     1       6.683   0.493   2.023  1.00  0.00     0.227 C 
HETATM   14  O2  UNL     1       7.143   0.712   3.176  1.00  0.00    -0.273 OA
HETATM   15  N3  UNL     1       6.805  -0.815   1.450  1.00  0.00    -0.326 N 
HETATM   16  C13 UNL     1       6.448  -1.122   0.091  1.00  0.00     0.045 A 
HETATM   17  H10 UNL     1       7.365  -1.519   1.983  1.00  0.00     0.169 HD
HETATM   18  C14 UNL     1       7.316  -1.939  -0.651  1.00  0.00     0.030 A 
HETATM   19  C15 UNL     1       7.029  -2.268  -1.976  1.00  0.00     0.002 A 
HETATM   20  C16 UNL     1       5.865  -1.794  -2.575  1.00  0.00     0.001 A 
HETATM   21  C17 UNL     1       4.975  -1.002  -1.848  1.00  0.00     0.014 A 
ENDBRANCH   2   5
BRANCH   1  22
HETATM   22  C4  UNL     1      -1.989   0.881   0.556  1.00  0.00     0.035 A 
HETATM   23  C3  UNL     1      -2.406   0.048  -0.495  1.00  0.00     0.037 A 
HETATM   24  C2  UNL     1      -3.771  -0.202  -0.719  1.00  0.00    -0.049 A 
HETATM   25  C1  UNL     1      -4.165  -1.128  -1.841  1.00  0.00     0.049 C 
HETATM   26  C21 UNL     1      -4.737   0.440   0.094  1.00  0.00    -0.020 A 
HETATM   27  C20 UNL     1      -4.311   1.281   1.135  1.00  0.00     0.015 A 
HETATM   28  C19 UNL     1      -2.952   1.505   1.357  1.00  0.00     0.030 A 
BRANCH  26  29
HETATM   29  C22 UNL     1      -6.191   0.259  -0.119  1.00  0.00    -0.019 A 
HETATM   30  C23 UNL     1      -6.789   0.632  -1.331  1.00  0.00     0.086 A 
HETATM   31  C24 UNL     1      -8.166   0.461  -1.503  1.00  0.00     0.245 A 
HETATM   32  O3  UNL     1      -8.708   0.791  -2.592  1.00  0.00    -0.268 OA
HETATM   33  N4  UNL     1      -8.921  -0.057  -0.495  1.00  0.00    -0.334 N 
HETATM   34  C25 UNL     1      -8.366  -0.414   0.695  1.00  0.00     0.092 A 
HETATM   35  H18 UNL     1      -9.950  -0.182  -0.630  1.00  0.00     0.168 HD
HETATM   36  C26 UNL     1      -6.995  -0.259   0.906  1.00  0.00     0.029 A 
ENDBRANCH  26  29
ENDBRANCH   1  22
TORSDOF 3
