REMARK  3 active torsions:
REMARK  status: ('A' for Active; 'I' for Inactive)
REMARK    1  A    between atoms: N1_4  and  C4_5 
REMARK    2  A    between atoms: C11_14  and  N2_15 
REMARK       I    between atoms: N2_15  and  C12_16 
REMARK    3  A    between atoms: C12_16  and  C13_18 
ROOT
HETATM    1  N2  UNL     1      -0.568  -0.564   0.386  1.00  0.00    -0.350 N 
HETATM    2  C12 UNL     1       0.843  -0.392   0.181  1.00  0.00     0.252 C 
HETATM    3  O1  UNL     1       1.292  -0.241  -0.989  1.00  0.00    -0.268 OA
HETATM    4  H13 UNL     1      -0.900  -0.877   1.324  1.00  0.00     0.163 HD
ENDROOT
BRANCH   2   5
HETATM    5  C13 UNL     1       1.774  -0.369   1.337  1.00  0.00     0.043 A 
HETATM    6  C14 UNL     1       1.352   0.225   2.541  1.00  0.00     0.018 A 
HETATM    7  C15 UNL     1       2.206   0.287   3.643  1.00  0.00     0.002 A 
HETATM    8  C16 UNL     1       3.493  -0.243   3.564  1.00  0.00     0.014 A 
HETATM    9  C17 UNL     1       3.937  -0.832   2.376  1.00  0.00    -0.007 A 
HETATM   10  C18 UNL     1       3.088  -0.894   1.255  1.00  0.00    -0.009 A 
HETATM   11  C27 UNL     1       5.290  -1.410   2.311  1.00  0.00     0.128 C 
HETATM   12  C19 UNL     1       3.568  -1.586   0.041  1.00  0.00     0.014 C 
HETATM   13  C20 UNL     1       4.473  -1.057  -0.789  1.00  0.00     0.013 C 
HETATM   14  C21 UNL     1       4.910   0.349  -0.719  1.00  0.00    -0.025 A 
HETATM   15  C22 UNL     1       4.660   1.213  -1.696  1.00  0.00     0.012 A 
HETATM   16  C25 UNL     1       5.637   1.072   0.342  1.00  0.00    -0.008 A 
HETATM   17  C23 UNL     1       5.164   2.531  -1.320  1.00  0.00     0.002 A 
HETATM   18  C24 UNL     1       5.730   2.453  -0.127  1.00  0.00     0.014 A 
HETATM   19  C26 UNL     1       6.266   0.628   1.441  1.00  0.00     0.128 C 
HETATM   20  N3  UNL     1       6.304  -0.745   1.848  1.00  0.00    -0.271 NA
ENDBRANCH   2   5
BRANCH   1  21
HETATM   21  C11 UNL     1      -1.532  -0.415  -0.712  1.00  0.00     0.108 C 
HETATM   22  C2  UNL     1      -1.717   1.043  -1.173  1.00  0.00     0.024 C 
HETATM   23  C1  UNL     1      -1.573   2.064  -0.030  1.00  0.00     0.014 C 
HETATM   24  C3  UNL     1      -3.142   1.063  -1.738  1.00  0.00     0.129 C 
HETATM   25  N1  UNL     1      -3.846  -0.039  -1.091  1.00  0.00    -0.376 N 
HETATM   26  C10 UNL     1      -2.935  -0.885  -0.329  1.00  0.00     0.148 C 
BRANCH  25  27
HETATM   27  C4  UNL     1      -5.269  -0.281  -1.239  1.00  0.00     0.071 A 
HETATM   28  C5  UNL     1      -5.998   0.393  -2.241  1.00  0.00     0.032 A 
HETATM   29  C6  UNL     1      -7.368   0.175  -2.400  1.00  0.00     0.004 A 
HETATM   30  C7  UNL     1      -8.037  -0.717  -1.565  1.00  0.00     0.027 A 
HETATM   31  C8  UNL     1      -7.339  -1.395  -0.564  1.00  0.00     0.074 A 
HETATM   32 CL1  UNL     1      -8.199  -2.513   0.483  1.00  0.00    -0.081 Cl
HETATM   33  C9  UNL     1      -5.963  -1.182  -0.394  1.00  0.00     0.164 A 
HETATM   34  F1  UNL     1      -5.330  -1.842   0.607  1.00  0.00    -0.202 F 
ENDBRANCH  25  27
ENDBRANCH   1  21
TORSDOF 3
