REMARK  3 active torsions:
REMARK  status: ('A' for Active; 'I' for Inactive)
REMARK    1  A    between atoms: C5_7  and  N2_8 
REMARK    2  A    between atoms: C6_9  and  C7_10 
REMARK       I    between atoms: C7_10  and  N3_12 
REMARK    3  A    between atoms: N3_12  and  C8_13 
ROOT
HETATM    1  C8  UNL     1       1.000  -0.496   0.399  1.00  0.00     0.035 A 
HETATM    2  C9  UNL     1       0.537  -1.209   1.511  1.00  0.00     0.030 A 
HETATM    3  C10 UNL     1      -0.743  -1.765   1.513  1.00  0.00     0.015 A 
HETATM    4  C11 UNL     1      -1.586  -1.611   0.404  1.00  0.00    -0.019 A 
HETATM    5  C12 UNL     1      -1.131  -0.896  -0.728  1.00  0.00    -0.045 A 
HETATM    6  C13 UNL     1       0.153  -0.325  -0.710  1.00  0.00     0.037 A 
HETATM    7  C14 UNL     1      -1.985  -0.765  -1.973  1.00  0.00     0.044 C 
HETATM    8  C15 UNL     1      -3.189   0.202  -1.868  1.00  0.00     0.044 C 
HETATM    9  C16 UNL     1      -3.346   0.916  -0.540  1.00  0.00    -0.047 A 
HETATM   10  C17 UNL     1      -3.028   2.281  -0.446  1.00  0.00     0.008 A 
HETATM   11  C18 UNL     1      -3.226   2.973   0.752  1.00  0.00     0.001 A 
HETATM   12  C19 UNL     1      -3.741   2.311   1.866  1.00  0.00     0.001 A 
HETATM   13  C20 UNL     1      -4.046   0.951   1.794  1.00  0.00     0.013 A 
HETATM   14  C21 UNL     1      -3.841   0.240   0.601  1.00  0.00    -0.019 A 
HETATM   15  C22 UNL     1      -4.064  -1.223   0.590  1.00  0.00    -0.014 A 
HETATM   16  C23 UNL     1      -5.365  -1.728   0.727  1.00  0.00     0.013 A 
HETATM   17  C24 UNL     1      -5.586  -3.107   0.750  1.00  0.00     0.001 A 
HETATM   18  C25 UNL     1      -4.510  -3.992   0.651  1.00  0.00     0.001 A 
HETATM   19  C26 UNL     1      -3.208  -3.500   0.528  1.00  0.00     0.013 A 
HETATM   20  C27 UNL     1      -2.974  -2.118   0.488  1.00  0.00    -0.014 A 
ENDROOT
BRANCH   1  21
HETATM   21  N3  UNL     1       2.311   0.093   0.439  1.00  0.00    -0.323 N 
HETATM   22  C7  UNL     1       3.185   0.192  -0.697  1.00  0.00     0.260 C 
HETATM   23  O2  UNL     1       2.888  -0.363  -1.790  1.00  0.00    -0.267 OA
HETATM   24  H8  UNL     1       2.678   0.401   1.367  1.00  0.00     0.169 HD
BRANCH  22  25
HETATM   25  C6  UNL     1       4.465   0.918  -0.584  1.00  0.00     0.082 A 
HETATM   26  C2  UNL     1       5.505   0.420   0.235  1.00  0.00    -0.037 A 
HETATM   27  C1  UNL     1       5.356  -0.857   1.024  1.00  0.00     0.049 C 
HETATM   28  C3  UNL     1       6.699   1.145   0.341  1.00  0.00     0.082 A 
HETATM   29  C4  UNL     1       6.863   2.324  -0.385  1.00  0.00     0.247 A 
HETATM   30  O1  UNL     1       7.943   2.968  -0.297  1.00  0.00    -0.268 OA
HETATM   31  N1  UNL     1       5.862   2.779  -1.184  1.00  0.00    -0.309 N 
HETATM   32  C5  UNL     1       4.674   2.119  -1.302  1.00  0.00     0.118 A 
HETATM   33  H5  UNL     1       6.008   3.668  -1.717  1.00  0.00     0.170 HD
BRANCH  32  34
HETATM   34  N2  UNL     1       3.647   2.678  -2.133  1.00  0.00    -0.385 N 
HETATM   35  H6  UNL     1       2.707   2.237  -2.232  1.00  0.00     0.157 HD
HETATM   36  H7  UNL     1       3.812   3.576  -2.639  1.00  0.00     0.157 HD
ENDBRANCH  32  34
ENDBRANCH  22  25
ENDBRANCH   1  21
TORSDOF 3
